version 2
run General-0-20221128-18:07:34-18815
attr configname General
attr datetime 20221128-18:07:34
attr experiment General
attr inifile omnetpp.ini
attr iterationvars ""
attr iterationvarsf ""
attr measurement ""
attr network WirelessNetwork
attr processid 18815
attr repetition 0
attr replication #0
attr resultdir results
attr runnumber 0
attr seedset 0
param *.host*.ipv4.arp.typename "\"GlobalArp\""
param *.hostA.numApps 1
param *.hostA.app[0].typename "\"UdpBasicApp\""
param *.hostA.app[0].destAddresses "\"hostB\""
param *.hostA.app[0].destPort 5000
param *.hostA.app[0].messageLength 1000B
param *.hostA.app[0].sendInterval exponential(12ms)
param *.hostA.app[0].packetName "\"UDPData\""
param *.hostB.numApps 1
param *.hostB.app[0].typename "\"UdpSink\""
param *.hostB.app[0].localPort 5000
param *.host*.wlan[0].typename "\"AckingWirelessInterface\""
param *.host*.wlan[0].mac.useAck false
param *.host*.wlan[0].mack.fullDuplex false
param *.host*.wlan[0].radio.transmitter.communicationRange 500m
param *.host*.wlan[0].radio.receiver.ignoreInterface true
param *.host*.wlan[0].mac.headerLength 23B
param *.host*.**.bitrate 1Mbps
param **.radio.displayCommunicationRagne true
param *.visualizer.mediumVisualizer.displaySignals true
param *.visualizer.physicalLinkVisualizer.displayLinks true
param *.visualizer.physicalLinkVisualizer.packetFilter "\"UDPData*\""
param *.visualizer.mobilityVisualizer.displayVelocities true
param *.visualizer.mobilityVisualizer.displayMovementTrails true
param *.hostA.mobility.typename "\"LinearMobility\""
param *.hostA.mobility.speed 12mps
param *.hostA.mobility.initialMovementHeading 315deg

vector 0 WirelessNetwork.hostA.wlan[0].radio radioMode:vector ETV
attr interpolationmode sample-hold
attr source radioModeChanged
attr title "Radio mode, vector"
vector 1 WirelessNetwork.hostB.wlan[0].radio radioMode:vector ETV
attr interpolationmode sample-hold
attr source radioModeChanged
attr title "Radio mode, vector"
vector 2 WirelessNetwork.hostA.wlan[0].radio receptionState:vector ETV
attr interpolationmode sample-hold
attr source receptionStateChanged
attr title "Radio reception state, vector"
vector 3 WirelessNetwork.hostA.wlan[0].radio transmissionState:vector ETV
attr interpolationmode sample-hold
attr source transmissionStateChanged
attr title "Radio transmission state, vector"
vector 4 WirelessNetwork.hostB.wlan[0].radio receptionState:vector ETV
attr interpolationmode sample-hold
attr source receptionStateChanged
attr title "Radio reception state, vector"
vector 5 WirelessNetwork.hostB.wlan[0].radio transmissionState:vector ETV
attr interpolationmode sample-hold
attr source transmissionStateChanged
attr title "Radio transmission state, vector"
vector 6 WirelessNetwork.hostA.app[0] packetSent:vector(packetBytes) ETV
attr interpolationmode none
attr source packetSent
attr title "packets sent, vector(packetBytes)"
vector 7 WirelessNetwork.hostA.udp packetSent:vector(packetBytes) ETV
attr interpolationmode none
attr source packetSent
attr title "packets sent, vector(packetBytes)"
vector 8 WirelessNetwork.hostA.wlan[0].mac rcvdPkFromHl:vector(packetBytes) ETV
attr interpolationmode none
attr source packetReceivedFromUpper
attr title "packets received from higher layer, vector(packetBytes)"
vector 9 WirelessNetwork.hostA.wlan[0].mac.queue packetPushed:vector(packetBytes) ETV
attr interpolationmode none
attr title "packet pushed, vector(packetBytes)"
vector 10 WirelessNetwork.hostA.wlan[0].mac.queue queueLength:vector ETV
attr interpolationmode sample-hold
attr source "count(packetPushed) - count(packetPopped) - count(packetRemoved) - count(packetDropped)"
attr title "queue length, vector"
vector 11 WirelessNetwork.hostA.wlan[0].mac.queue packetPopped:vector(packetBytes) ETV
attr interpolationmode none
attr title "packet popped, vector(packetBytes)"
vector 12 WirelessNetwork.hostA.wlan[0].mac.queue queueingTime:vector ETV
attr interpolationmode none
attr source queueingTime(packetPopped)
attr title "queueing times, vector"
attr unit s
vector 13 WirelessNetwork.hostA.wlan[0].mac sentDownPk:vector(packetBytes) ETV
attr interpolationmode none
attr source packetSentToLower
attr title "packets sent to lower layer, vector(packetBytes)"
vector 14 WirelessNetwork.hostB.wlan[0].mac rcvdPkFromLl:vector(packetBytes) ETV
attr interpolationmode none
attr source packetReceivedFromLower
attr title "packets received from lower layer, vector(packetBytes)"
vector 15 WirelessNetwork.hostB.wlan[0].mac passedUpPk:vector(packetBytes) ETV
attr interpolationmode none
attr source packetSentToUpper
attr title "packets passed to higher layer, vector(packetBytes)"
vector 16 WirelessNetwork.hostB.udp packetReceived:vector(packetBytes) ETV
attr interpolationmode none
attr source packetReceived
attr title "packets received, vector(packetBytes)"
vector 17 WirelessNetwork.hostB.udp passedUpPk:vector(count) ETV
attr interpolationmode none
attr source packetSentToUpper
attr title "packets passed up, vector(count)"
vector 18 WirelessNetwork.hostB.app[0] packetReceived:vector(packetBytes) ETV
attr interpolationmode none
attr source packetReceived
attr title "packets received, vector(packetBytes)"
vector 19 WirelessNetwork.hostB.app[0] endToEndDelay:vector ETV
attr interpolationmode none
attr source dataAge(packetReceived)
attr title "end-to-end delay, vector"
attr unit s
vector 20 WirelessNetwork.hostB.app[0] rcvdPkSeqNo:vector ETV
attr interpolationmode none
attr source appPkSeqNo(packetReceived)
attr title "received packet sequence number, vector"
vector 21 WirelessNetwork.hostB.app[0] throughput:vector ETV
attr source throughput(packetReceived)
attr title "throughput, vector"
attr unit bps
vector 22 WirelessNetwork.hostA.app[0] throughput:vector ETV
attr source throughput(packetReceived)
attr title "throughput, vector"
attr unit bps
0	0	0	0
0	0	0	0
0	0	0	4
1	0	0	0
1	0	0	0
1	0	0	4
2	0	0	1
3	0	0	1
3	9	0.022315250545	2
3	15	0.030819250545	1
3	16	0.030819250545	2
3	23	0.039323250545	1
3	34	0.041385743993	2
3	41	0.049889743993	1
3	42	0.049889743993	2
3	49	0.058393743993	1
3	61	0.07497426742	2
3	63	0.08347826742	1
3	75	0.114753214779	2
3	81	0.123257214779	1
3	82	0.123257214779	2
3	89	0.131761214779	1
3	100	0.139383193449	2
3	103	0.147887193449	1
3	113	0.148415282809	2
3	115	0.156919282809	1
3	126	0.158488477044	2
3	129	0.166992477044	1
3	140	0.189667526074	2
3	154	0.198171526074	1
3	155	0.198171526074	2
3	163	0.206675526074	1
3	164	0.206675526074	2
3	176	0.215179526074	1
3	177	0.215179526074	2
3	185	0.223683526074	1
3	186	0.223683526074	2
3	198	0.232187526074	1
3	199	0.232187526074	2
3	207	0.240691526074	1
3	219	0.255893823874	2
3	221	0.264397823874	1
3	233	0.302036486304	2
3	235	0.310540486304	1
3	246	0.321299360989	2
3	252	0.329803360989	1
3	253	0.329803360989	2
3	260	0.338307360989	1
3	271	0.346924946193	2
3	278	0.355428946193	1
3	279	0.355428946193	2
3	294	0.363932946193	1
3	295	0.363932946193	2
3	303	0.372436946193	1
3	304	0.372436946193	2
3	312	0.380940946193	1
3	324	0.3972824235	2
3	327	0.4057864235	1
3	337	0.406136351001	2
3	343	0.414640351001	1
3	344	0.414640351001	2
3	356	0.423144351001	1
3	357	0.423144351001	2
3	365	0.431648351001	1
3	376	0.434109561779	2
3	383	0.442613561779	1
3	384	0.442613561779	2
3	391	0.451117561779	1
3	401	0.451502567324	2
3	408	0.460006567324	1
3	409	0.460006567324	2
3	421	0.468510567324	1
3	422	0.468510567324	2
3	434	0.477014567324	1
3	435	0.477014567324	2
3	443	0.485518567324	1
3	453	0.486145297277	2
3	456	0.494649297277	1
3	469	0.520680277532	2
3	471	0.529184277532	1
3	481	0.534421944988	2
3	488	0.542925944988	1
3	489	0.542925944988	2
3	500	0.551429944988	1
3	501	0.551429944988	2
3	509	0.559933944988	1
3	519	0.561015849403	2
3	526	0.569519849403	1
3	527	0.569519849403	2
3	539	0.578023849403	1
3	540	0.578023849403	2
3	548	0.586527849403	1
3	559	0.588275351848	2
3	570	0.596779351848	1
3	571	0.596779351848	2
3	587	0.605283351848	1
3	588	0.605283351848	2
3	600	0.613787351848	1
3	601	0.613787351848	2
3	613	0.622291351848	1
3	614	0.622291351848	2
3	622	0.630795351848	1
3	623	0.630795351848	2
3	631	0.639299351848	1
3	632	0.639299351848	2
3	640	0.647803351848	1
3	652	0.673253932282	2
3	666	0.681757932282	1
3	667	0.681757932282	2
3	674	0.690261932282	1
3	675	0.690261932282	2
3	691	0.698765932282	1
3	692	0.698765932282	2
3	709	0.707269932282	1
3	710	0.707269932282	2
3	726	0.715773932282	1
3	727	0.715773932282	2
3	739	0.724277932282	1
3	740	0.724277932282	2
3	756	0.732781932282	1
3	757	0.732781932282	2
3	769	0.741285932282	1
3	770	0.741285932282	2
3	778	0.749789932282	1
3	779	0.749789932282	2
3	795	0.758293932282	1
3	796	0.758293932282	2
3	804	0.766797932282	1
3	805	0.766797932282	2
3	813	0.775301932282	1
3	814	0.775301932282	2
3	830	0.783805932282	1
3	831	0.783805932282	2
3	839	0.792309932282	1
3	840	0.792309932282	2
3	849	0.800813932282	1
3	850	0.800813932282	2
3	858	0.809317932282	1
3	859	0.809317932282	2
3	867	0.817821932282	1
3	868	0.817821932282	2
3	880	0.826325932282	1
3	881	0.826325932282	2
3	893	0.834829932282	1
3	894	0.834829932282	2
3	902	0.843333932282	1
3	914	0.875445285936	2
3	916	0.883949285936	1
3	926	0.886587027899	2
3	929	0.895091027899	1
3	940	0.902717971165	2
3	955	0.911221971165	1
3	956	0.911221971165	2
3	975	0.919725971165	1
3	976	0.919725971165	2
3	992	0.928229971165	1
3	993	0.928229971165	2
3	1001	0.936733971165	1
3	1002	0.936733971165	2
3	1014	0.945237971165	1
3	1015	0.945237971165	2
3	1027	0.953741971165	1
3	1028	0.953741971165	2
3	1040	0.962245971165	1
3	1041	0.962245971165	2
3	1057	0.970749971165	1
3	1058	0.970749971165	2
3	1070	0.979253971165	1
3	1071	0.979253971165	2
3	1079	0.987757971165	1
3	1080	0.987757971165	2
3	1088	0.996261971165	1
3	1089	0.996261971165	2
3	1098	1.004765971165	1
3	1099	1.004765971165	2
3	1115	1.013269971165	1
3	1116	1.013269971165	2
3	1124	1.021773971165	1
3	1125	1.021773971165	2
3	1141	1.030277971165	1
3	1142	1.030277971165	2
3	1150	1.038781971165	1
3	1151	1.038781971165	2
3	1167	1.047285971165	1
3	1168	1.047285971165	2
3	1180	1.055789971165	1
3	1181	1.055789971165	2
3	1197	1.064293971165	1
3	1198	1.064293971165	2
3	1206	1.072797971165	1
3	1207	1.072797971165	2
3	1223	1.081301971165	1
3	1224	1.081301971165	2
3	1232	1.089805971165	1
3	1233	1.089805971165	2
3	1249	1.098309971165	1
3	1250	1.098309971165	2
3	1259	1.106813971165	1
3	1260	1.106813971165	2
3	1272	1.115317971165	1
3	1273	1.115317971165	2
3	1281	1.123821971165	1
3	1282	1.123821971165	2
3	1290	1.132325971165	1
3	1291	1.132325971165	2
3	1299	1.140829971165	1
3	1300	1.140829971165	2
3	1308	1.149333971165	1
3	1319	1.152161667644	2
3	1326	1.160665667644	1
3	1327	1.160665667644	2
3	1338	1.169169667644	1
3	1339	1.169169667644	2
3	1351	1.177673667644	1
3	1352	1.177673667644	2
3	1360	1.186177667644	1
3	1370	1.186844375116	2
3	1377	1.195348375116	1
3	1378	1.195348375116	2
3	1387	1.203852375116	1
3	1399	1.226500794914	2
3	1405	1.235004794914	1
3	1406	1.235004794914	2
3	1413	1.243508794914	1
3	1425	1.256093801801	2
3	1427	1.264597801801	1
3	1437	1.270520664608	2
3	1444	1.279024664608	1
3	1445	1.279024664608	2
3	1452	1.287528664608	1
3	1463	1.294927972662	2
3	1471	1.303431972662	1
3	1472	1.303431972662	2
3	1479	1.311935972662	1
3	1491	1.326542190388	2
3	1493	1.335046190388	1
3	1503	1.336988620304	2
3	1506	1.345492620304	1
3	1517	1.362606585704	2
3	1519	1.371110585704	1
3	1529	1.376759180908	2
3	1532	1.385263180908	1
3	1542	1.392262092134	2
3	1550	1.400766092134	1
3	1551	1.400766092134	2
3	1558	1.409270092134	1
3	1570	1.438117305957	2
3	1572	1.446621305957	1
3	1582	1.450510870085	2
3	1589	1.459014870085	1
3	1590	1.459014870085	2
3	1597	1.467518870085	1
3	1607	1.468316456532	2
3	1618	1.476820456532	1
3	1619	1.476820456532	2
3	1627	1.485324456532	1
3	1628	1.485324456532	2
3	1644	1.493828456532	1
3	1645	1.493828456532	2
3	1658	1.502332456532	1
3	1659	1.502332456532	2
3	1675	1.510836456532	1
3	1676	1.510836456532	2
3	1688	1.519340456532	1
3	1689	1.519340456532	2
3	1701	1.527844456532	1
3	1702	1.527844456532	2
3	1714	1.536348456532	1
3	1715	1.536348456532	2
3	1723	1.544852456532	1
3	1724	1.544852456532	2
3	1736	1.553356456532	1
3	1737	1.553356456532	2
3	1749	1.561860456532	1
3	1750	1.561860456532	2
3	1758	1.570364456532	1
3	1759	1.570364456532	2
3	1775	1.578868456532	1
3	1776	1.578868456532	2
3	1784	1.587372456532	1
3	1785	1.587372456532	2
3	1793	1.595876456532	1
3	1805	1.604662398509	2
3	1812	1.613166398509	1
3	1813	1.613166398509	2
3	1824	1.621670398509	1
3	1825	1.621670398509	2
3	1833	1.630174398509	1
3	1845	1.64372898762	2
3	1847	1.65223298762	1
3	1858	1.663419758555	2
3	1860	1.671923758555	1
3	1870	1.678023992499	2
3	1877	1.686527992499	1
3	1878	1.686527992499	2
3	1885	1.695031992499	1
3	1898	1.709522729784	2
3	1900	1.718026729784	1
3	1910	1.724554020083	2
3	1913	1.733058020083	1
3	1925	1.805738706322	2
3	1931	1.814242706322	1
3	1932	1.814242706322	2
3	1939	1.822746706322	1
3	1950	1.831992053168	2
3	1957	1.840496053168	1
3	1958	1.840496053168	2
3	1973	1.849000053168	1
3	1974	1.849000053168	2
3	1982	1.857504053168	1
3	1983	1.857504053168	2
3	1991	1.866008053168	1
3	2002	1.869784908311	2
3	2005	1.878288908311	1
3	2016	1.889545537527	2
3	2018	1.898049537527	1
3	2028	1.899648109068	2
3	2040	1.908152109068	1
3	2041	1.908152109068	2
3	2048	1.916656109068	1
3	2049	1.916656109068	2
3	2061	1.925160109068	1
3	2062	1.925160109068	2
3	2074	1.933664109068	1
3	2075	1.933664109068	2
3	2083	1.942168109068	1
3	2094	1.943743516144	2
3	2097	1.952247516144	1
3	2108	1.967896788978	2
3	2110	1.976400788978	1
3	2122	2.012416316081	2
3	2124	2.020920316081	1
3	2135	2.035655242931	2
3	2145	2.044159242931	1
3	2146	2.044159242931	2
3	2153	2.052663242931	1
3	2154	2.052663242931	2
3	2170	2.061167242931	1
3	2171	2.061167242931	2
3	2187	2.069671242931	1
3	2188	2.069671242931	2
3	2204	2.078175242931	1
3	2205	2.078175242931	2
3	2213	2.086679242931	1
3	2214	2.086679242931	2
3	2230	2.095183242931	1
3	2231	2.095183242931	2
3	2244	2.103687242931	1
3	2245	2.103687242931	2
3	2253	2.112191242931	1
3	2254	2.112191242931	2
3	2262	2.120695242931	1
3	2263	2.120695242931	2
3	2271	2.129199242931	1
3	2272	2.129199242931	2
3	2284	2.137703242931	1
3	2285	2.137703242931	2
3	2301	2.146207242931	1
3	2302	2.146207242931	2
3	2314	2.154711242931	1
3	2315	2.154711242931	2
3	2327	2.163215242931	1
3	2328	2.163215242931	2
3	2340	2.171719242931	1
3	2341	2.171719242931	2
3	2353	2.180223242931	1
3	2354	2.180223242931	2
3	2362	2.188727242931	1
3	2363	2.188727242931	2
3	2371	2.197231242931	1
3	2383	2.205260755149	2
3	2386	2.213764755149	1
3	2396	2.21668271164	2
3	2399	2.22518671164	1
3	2409	2.225887667495	2
3	2411	2.234391667495	1
3	2422	2.236584210418	2
3	2425	2.245088210418	1
3	2435	2.252301634874	2
3	2442	2.260805634874	1
3	2443	2.260805634874	2
3	2462	2.269309634874	1
3	2463	2.269309634874	2
3	2471	2.277813634874	1
3	2472	2.277813634874	2
3	2480	2.286317634874	1
3	2481	2.286317634874	2
3	2489	2.294821634874	1
3	2501	2.302850240863	2
3	2504	2.311354240863	1
3	2514	2.318994410062	2
3	2521	2.327498410062	1
3	2522	2.327498410062	2
3	2541	2.336002410062	1
3	2542	2.336002410062	2
3	2554	2.344506410062	1
3	2555	2.344506410062	2
3	2567	2.353010410062	1
3	2568	2.353010410062	2
3	2580	2.361514410062	1
3	2581	2.361514410062	2
3	2605	2.370018410062	1
3	2606	2.370018410062	2
3	2614	2.378522410062	1
3	2615	2.378522410062	2
3	2627	2.387026410062	1
3	2628	2.387026410062	2
3	2640	2.395530410062	1
3	2641	2.395530410062	2
3	2654	2.404034410062	1
3	2655	2.404034410062	2
3	2663	2.412538410062	1
3	2664	2.412538410062	2
3	2672	2.421042410062	1
3	2673	2.421042410062	2
3	2685	2.429546410062	1
3	2686	2.429546410062	2
3	2694	2.438050410062	1
3	2695	2.438050410062	2
3	2703	2.446554410062	1
3	2704	2.446554410062	2
3	2712	2.455058410062	1
3	2724	2.482298732409	2
3	2730	2.490802732409	1
3	2731	2.490802732409	2
3	2742	2.499306732409	1
3	2743	2.499306732409	2
3	2760	2.507810732409	1
3	2761	2.507810732409	2
3	2769	2.516314732409	1
3	2770	2.516314732409	2
3	2786	2.524818732409	1
3	2787	2.524818732409	2
3	2799	2.533322732409	1
3	2800	2.533322732409	2
3	2812	2.541826732409	1
3	2813	2.541826732409	2
3	2821	2.550330732409	1
3	2822	2.550330732409	2
3	2830	2.558834732409	1
3	2841	2.561669400952	2
3	2844	2.570173400952	1
3	2854	2.573567452467	2
3	2857	2.582071452467	1
3	2868	2.598297307358	2
3	2875	2.606801307358	1
3	2876	2.606801307358	2
3	2883	2.615305307358	1
3	2894	2.621328836518	2
3	2901	2.629832836518	1
3	2902	2.629832836518	2
3	2909	2.638336836518	1
3	2921	2.660431225778	2
3	2923	2.668935225778	1
3	2933	2.674388585179	2
3	2940	2.682892585179	1
3	2941	2.682892585179	2
3	2948	2.691396585179	1
3	2961	2.712634970432	2
3	2963	2.721138970432	1
3	2973	2.728385066348	2
3	2984	2.736889066348	1
3	2985	2.736889066348	2
3	3000	2.745393066348	1
3	3001	2.745393066348	2
3	3017	2.753897066348	1
3	3018	2.753897066348	2
3	3030	2.762401066348	1
3	3031	2.762401066348	2
3	3047	2.770905066348	1
3	3048	2.770905066348	2
3	3056	2.779409066348	1
3	3057	2.779409066348	2
3	3069	2.787913066348	1
3	3070	2.787913066348	2
3	3078	2.796417066348	1
3	3079	2.796417066348	2
3	3092	2.804921066348	1
3	3093	2.804921066348	2
3	3105	2.813425066348	1
3	3106	2.813425066348	2
3	3122	2.821929066348	1
3	3123	2.821929066348	2
3	3131	2.830433066348	1
3	3132	2.830433066348	2
3	3148	2.838937066348	1
3	3149	2.838937066348	2
3	3157	2.847441066348	1
3	3158	2.847441066348	2
3	3178	2.855945066348	1
3	3179	2.855945066348	2
3	3191	2.864449066348	1
3	3192	2.864449066348	2
3	3204	2.872953066348	1
3	3205	2.872953066348	2
3	3213	2.881457066348	1
3	3214	2.881457066348	2
3	3222	2.889961066348	1
3	3223	2.889961066348	2
3	3231	2.898465066348	1
3	3232	2.898465066348	2
3	3245	2.906969066348	1
3	3246	2.906969066348	2
3	3254	2.915473066348	1
3	3255	2.915473066348	2
3	3267	2.923977066348	1
3	3268	2.923977066348	2
3	3276	2.932481066348	1
3	3286	2.933378235419	2
3	3289	2.941882235419	1
3	3301	2.961464138947	2
3	3307	2.969968138947	1
3	3308	2.969968138947	2
3	3319	2.978472138947	1
3	3320	2.978472138947	2
3	3332	2.986976138947	1
3	3333	2.986976138947	2
3	3341	2.995480138947	1
3	3354	3.021910680853	2
3	3364	3.030414680853	1
3	3365	3.030414680853	2
3	3380	3.038918680853	1
3	3381	3.038918680853	2
3	3389	3.047422680853	1
3	3390	3.047422680853	2
3	3398	3.055926680853	1
3	3399	3.055926680853	2
3	3411	3.064430680853	1
3	3412	3.064430680853	2
3	3420	3.072934680853	1
3	3431	3.075961909561	2
3	3434	3.084465909561	1
3	3444	3.094415854135	2
3	3452	3.102919854135	1
3	3453	3.102919854135	2
3	3468	3.111423854135	1
3	3469	3.111423854135	2
3	3481	3.119927854135	1
3	3482	3.119927854135	2
3	3490	3.128431854135	1
3	3491	3.128431854135	2
3	3499	3.136935854135	1
3	3511	3.163280421768	2
3	3513	3.171784421768	1
3	3524	3.188379100639	2
3	3530	3.196883100639	1
3	3531	3.196883100639	2
3	3539	3.205387100639	1
3	3551	3.232438910766	2
3	3557	3.240942910766	1
3	3558	3.240942910766	2
3	3565	3.249446910766	1
3	3577	3.271388244226	2
3	3579	3.279892244226	1
3	3591	3.305427926547	2
3	3593	3.313931926547	1
3	3604	3.324693431704	2
3	3606	3.333197431704	1
3	3616	3.336638995424	2
3	3619	3.345142995424	1
3	3630	3.361524132981	2
3	3636	3.370028132981	1
3	3637	3.370028132981	2
3	3644	3.378532132981	1
3	3655	3.388366393003	2
3	3658	3.396870393003	1
3	3668	3.399910536122	2
3	3684	3.408414536122	1
3	3685	3.408414536122	2
3	3692	3.416918536122	1
3	3693	3.416918536122	2
3	3701	3.425422536122	1
3	3702	3.425422536122	2
3	3710	3.433926536122	1
3	3722	3.455208273796	2
3	3728	3.463712273796	1
3	3729	3.463712273796	2
3	3740	3.472216273796	1
3	3741	3.472216273796	2
3	3749	3.480720273796	1
3	3760	3.483515408701	2
3	3771	3.492019408701	1
3	3772	3.492019408701	2
3	3780	3.500523408701	1
3	3781	3.500523408701	2
3	3789	3.509027408701	1
3	3800	3.511519205519	2
3	3807	3.520023205519	1
3	3808	3.520023205519	2
3	3827	3.528527205519	1
3	3828	3.528527205519	2
3	3836	3.537031205519	1
3	3837	3.537031205519	2
3	3845	3.545535205519	1
3	3846	3.545535205519	2
3	3858	3.554039205519	1
3	3859	3.554039205519	2
3	3867	3.562543205519	1
3	3879	3.594011881851	2
3	3882	3.602515881851	1
3	3893	3.632891437454	2
3	3895	3.641395437454	1
3	3906	3.661336088421	2
3	3908	3.669840088421	1
3	3918	3.679185245473	2
3	3929	3.687689245473	1
3	3930	3.687689245473	2
3	3945	3.696193245473	1
3	3946	3.696193245473	2
3	3963	3.704697245473	1
3	3964	3.704697245473	2
3	3980	3.713201245473	1
3	3981	3.713201245473	2
3	3989	3.721705245473	1
3	3990	3.721705245473	2
3	4002	3.730209245473	1
3	4003	3.730209245473	2
3	4023	3.738713245473	1
3	4024	3.738713245473	2
3	4032	3.747217245473	1
3	4033	3.747217245473	2
3	4049	3.755721245473	1
3	4050	3.755721245473	2
3	4062	3.764225245473	1
3	4063	3.764225245473	2
3	4075	3.772729245473	1
3	4076	3.772729245473	2
3	4084	3.781233245473	1
3	4085	3.781233245473	2
3	4093	3.789737245473	1
3	4094	3.789737245473	2
3	4106	3.798241245473	1
3	4107	3.798241245473	2
3	4120	3.806745245473	1
3	4121	3.806745245473	2
3	4141	3.815249245473	1
3	4142	3.815249245473	2
3	4158	3.823753245473	1
3	4159	3.823753245473	2
3	4171	3.832257245473	1
3	4172	3.832257245473	2
3	4180	3.840761245473	1
3	4181	3.840761245473	2
3	4193	3.849265245473	1
3	4194	3.849265245473	2
3	4206	3.857769245473	1
3	4207	3.857769245473	2
3	4223	3.866273245473	1
3	4224	3.866273245473	2
3	4236	3.874777245473	1
3	4237	3.874777245473	2
3	4245	3.883281245473	1
3	4246	3.883281245473	2
3	4262	3.891785245473	1
3	4263	3.891785245473	2
3	4272	3.900289245473	1
3	4273	3.900289245473	2
3	4285	3.908793245473	1
3	4286	3.908793245473	2
3	4294	3.917297245473	1
3	4295	3.917297245473	2
3	4307	3.925801245473	1
3	4308	3.925801245473	2
3	4316	3.934305245473	1
3	4317	3.934305245473	2
3	4333	3.942809245473	1
3	4334	3.942809245473	2
3	4346	3.951313245473	1
3	4347	3.951313245473	2
3	4359	3.959817245473	1
3	4360	3.959817245473	2
3	4376	3.968321245473	1
3	4377	3.968321245473	2
3	4389	3.976825245473	1
3	4390	3.976825245473	2
3	4406	3.985329245473	1
3	4407	3.985329245473	2
3	4415	3.993833245473	1
3	4416	3.993833245473	2
3	4433	4.002337245473	1
3	4434	4.002337245473	2
3	4446	4.010841245473	1
3	4447	4.010841245473	2
3	4459	4.019345245473	1
3	4460	4.019345245473	2
3	4472	4.027849245473	1
3	4473	4.027849245473	2
3	4481	4.036353245473	1
3	4482	4.036353245473	2
3	4490	4.044857245473	1
3	4491	4.044857245473	2
3	4499	4.053361245473	1
3	4500	4.053361245473	2
3	4512	4.061865245473	1
3	4513	4.061865245473	2
3	4521	4.070369245473	1
3	4522	4.070369245473	2
3	4538	4.078873245473	1
3	4539	4.078873245473	2
3	4551	4.087377245473	1
3	4552	4.087377245473	2
3	4564	4.095881245473	1
3	4565	4.095881245473	2
3	4578	4.104385245473	1
3	4579	4.104385245473	2
3	4591	4.112889245473	1
3	4592	4.112889245473	2
3	4608	4.121393245473	1
3	4609	4.121393245473	2
3	4621	4.129897245473	1
3	4622	4.129897245473	2
3	4630	4.138401245473	1
3	4631	4.138401245473	2
3	4639	4.146905245473	1
3	4640	4.146905245473	2
3	4648	4.155409245473	1
3	4649	4.155409245473	2
3	4665	4.163913245473	1
3	4666	4.163913245473	2
3	4674	4.172417245473	1
3	4675	4.172417245473	2
3	4683	4.180921245473	1
3	4684	4.180921245473	2
3	4692	4.189425245473	1
3	4702	4.190880830901	2
3	4705	4.199384830901	1
3	4717	4.200298875136	2
3	4723	4.208802875136	1
3	4724	4.208802875136	2
3	4732	4.217306875136	1
3	4744	4.233273729561	2
3	4750	4.241777729561	1
3	4751	4.241777729561	2
3	4758	4.250281729561	1
3	4769	4.256092523779	2
3	4776	4.264596523779	1
3	4777	4.264596523779	2
3	4784	4.273100523779	1
3	4796	4.290329389311	2
3	4798	4.298833389311	1
3	4809	4.30438455365	2
3	4812	4.31288855365	1
3	4822	4.318817119056	2
3	4829	4.327321119056	1
3	4830	4.327321119056	2
3	4837	4.335825119056	1
3	4848	4.34054749041	2
3	4851	4.34905149041	1
3	4861	4.352676720367	2
3	4872	4.361180720367	1
3	4873	4.361180720367	2
3	4880	4.369684720367	1
3	4881	4.369684720367	2
3	4893	4.378188720367	1
3	4894	4.378188720367	2
3	4902	4.386692720367	1
3	4915	4.415547956405	2
3	4921	4.424051956405	1
3	4922	4.424051956405	2
3	4929	4.432555956405	1
3	4939	4.433628918575	2
3	4942	4.442132918575	1
3	4954	4.457028641517	2
3	4960	4.465532641517	1
3	4961	4.465532641517	2
3	4968	4.474036641517	1
3	4981	4.500768643121	2
3	4983	4.509272643121	1
3	4993	4.511057864352	2
3	4996	4.519561864352	1
3	5007	4.531686696093	2
3	5009	4.540190696093	1
3	5020	4.560428853566	2
3	5022	4.568932853566	1
3	5033	4.580711673023	2
3	5039	4.589215673023	1
3	5040	4.589215673023	2
3	5051	4.597719673023	1
3	5052	4.597719673023	2
3	5069	4.606223673023	1
3	5070	4.606223673023	2
3	5086	4.614727673023	1
3	5087	4.614727673023	2
3	5095	4.623231673023	1
3	5096	4.623231673023	2
3	5104	4.631735673023	1
3	5105	4.631735673023	2
3	5121	4.640239673023	1
3	5122	4.640239673023	2
3	5130	4.648743673023	1
3	5131	4.648743673023	2
3	5139	4.657247673023	1
3	5151	4.673199466141	2
3	5157	4.681703466141	1
3	5158	4.681703466141	2
3	5177	4.690207466141	1
3	5178	4.690207466141	2
3	5190	4.698711466141	1
3	5191	4.698711466141	2
3	5200	4.707215466141	1
3	5201	4.707215466141	2
3	5209	4.715719466141	1
3	5210	4.715719466141	2
3	5218	4.724223466141	1
3	5228	4.72436341736	2
3	5235	4.73286741736	1
3	5236	4.73286741736	2
3	5244	4.74137141736	1
3	5256	4.760493645572	2
3	5258	4.768997645572	1
3	5269	4.784929175819	2
3	5275	4.793433175819	1
3	5276	4.793433175819	2
3	5292	4.801937175819	1
3	5293	4.801937175819	2
3	5301	4.810441175819	1
3	5302	4.810441175819	2
3	5326	4.818945175819	1
3	5327	4.818945175819	2
3	5347	4.827449175819	1
3	5348	4.827449175819	2
3	5372	4.835953175819	1
3	5373	4.835953175819	2
3	5381	4.844457175819	1
3	5382	4.844457175819	2
3	5394	4.852961175819	1
3	5395	4.852961175819	2
3	5403	4.861465175819	1
3	5404	4.861465175819	2
3	5412	4.869969175819	1
3	5413	4.869969175819	2
3	5421	4.878473175819	1
3	5422	4.878473175819	2
3	5430	4.886977175819	1
3	5431	4.886977175819	2
3	5443	4.895481175819	1
3	5444	4.895481175819	2
3	5453	4.903985175819	1
3	5454	4.903985175819	2
3	5462	4.912489175819	1
3	5463	4.912489175819	2
3	5471	4.920993175819	1
3	5472	4.920993175819	2
3	5480	4.929497175819	1
3	5492	4.944167199513	2
3	5502	4.952671199513	1
3	5503	4.952671199513	2
3	5510	4.961175199513	1
3	5511	4.961175199513	2
3	5523	4.969679199513	1
3	5524	4.969679199513	2
3	5536	4.978183199513	1
3	5537	4.978183199513	2
3	5545	4.986687199513	1
3	5558	5.027493908655	2
3	5564	5.035997908655	1
3	5565	5.035997908655	2
3	5572	5.044501908655	1
3	5583	5.046651584987	2
3	5594	5.055155584987	1
3	5595	5.055155584987	2
3	5602	5.063659584987	1
3	5603	5.063659584987	2
3	5619	5.072163584987	1
3	5620	5.072163584987	2
3	5628	5.080667584987	1
3	5629	5.080667584987	2
3	5641	5.089171584987	1
3	5642	5.089171584987	2
3	5654	5.097675584987	1
3	5655	5.097675584987	2
3	5668	5.106179584987	1
3	5669	5.106179584987	2
3	5685	5.114683584987	1
3	5686	5.114683584987	2
3	5694	5.123187584987	1
3	5695	5.123187584987	2
3	5707	5.131691584987	1
3	5708	5.131691584987	2
3	5724	5.140195584987	1
3	5725	5.140195584987	2
3	5733	5.148699584987	1
3	5734	5.148699584987	2
3	5742	5.157203584987	1
3	5753	5.160437370677	2
3	5756	5.168941370677	1
3	5767	5.191515284423	2
3	5778	5.200019284423	1
3	5779	5.200019284423	2
3	5790	5.208523284423	1
3	5791	5.208523284423	2
3	5799	5.217027284423	1
3	5800	5.217027284423	2
3	5812	5.225531284423	1
3	5813	5.225531284423	2
3	5821	5.234035284423	1
3	5833	5.271442763227	2
3	5835	5.279946763227	1
3	5847	5.313117031698	2
3	5849	5.321621031698	1
3	5860	5.341357048915	2
3	5866	5.349861048915	1
3	5867	5.349861048915	2
3	5874	5.358365048915	1
3	5887	5.403534900516	2
3	5897	5.412038900516	1
3	5898	5.412038900516	2
3	5905	5.420542900516	1
3	5906	5.420542900516	2
3	5914	5.429046900516	1
3	5926	5.444500763421	2
3	5932	5.453004763421	1
3	5933	5.453004763421	2
3	5940	5.461508763421	1
3	5950	5.461735790769	2
3	5957	5.470239790769	1
3	5958	5.470239790769	2
3	5970	5.478743790769	1
3	5971	5.478743790769	2
3	5979	5.487247790769	1
3	5992	5.503817316906	2
3	5998	5.512321316906	1
3	5999	5.512321316906	2
3	6014	5.520825316906	1
3	6015	5.520825316906	2
3	6023	5.529329316906	1
3	6024	5.529329316906	2
3	6036	5.537833316906	1
3	6037	5.537833316906	2
3	6053	5.546337316906	1
3	6054	5.546337316906	2
3	6070	5.554841316906	1
3	6071	5.554841316906	2
3	6079	5.563345316906	1
3	6080	5.563345316906	2
3	6088	5.571849316906	1
3	6089	5.571849316906	2
3	6105	5.580353316906	1
3	6106	5.580353316906	2
3	6118	5.588857316906	1
3	6119	5.588857316906	2
3	6127	5.597361316906	1
3	6128	5.597361316906	2
3	6137	5.605865316906	1
3	6149	5.620445508973	2
3	6151	5.628949508973	1
3	6161	5.632506896756	2
3	6164	5.641010896756	1
3	6175	5.656741910795	2
3	6177	5.665245910795	1
3	6188	5.690544851555	2
3	6190	5.699048851555	1
3	6201	5.707217153638	2
3	6204	5.715721153638	1
3	6214	5.721647841775	2
3	6217	5.730151841775	1
3	6228	5.762939170346	2
3	6230	5.771443170346	1
3	6242	5.825160723422	2
3	6252	5.833664723422	1
3	6253	5.833664723422	2
3	6268	5.842168723422	1
3	6269	5.842168723422	2
3	6285	5.850672723422	1
3	6286	5.850672723422	2
3	6298	5.859176723422	1
3	6299	5.859176723422	2
3	6311	5.867680723422	1
3	6312	5.867680723422	2
3	6320	5.876184723422	1
3	6321	5.876184723422	2
3	6329	5.884688723422	1
3	6330	5.884688723422	2
3	6342	5.893192723422	1
3	6343	5.893192723422	2
3	6352	5.901696723422	1
3	6353	5.901696723422	2
3	6361	5.910200723422	1
3	6373	5.932798914007	2
3	6375	5.941302914007	1
3	6385	5.942298223142	2
3	6391	5.950802223142	1
3	6392	5.950802223142	2
3	6404	5.959306223142	1
3	6405	5.959306223142	2
3	6413	5.967810223142	1
3	6425	5.984167464234	2
3	6431	5.992671464234	1
3	6432	5.992671464234	2
3	6444	6.001175464234	1
3	6445	6.001175464234	2
3	6457	6.009679464234	1
3	6458	6.009679464234	2
3	6474	6.018183464234	1
3	6475	6.018183464234	2
3	6487	6.026687464234	1
3	6488	6.026687464234	2
3	6504	6.035191464234	1
3	6505	6.035191464234	2
3	6517	6.043695464234	1
3	6518	6.043695464234	2
3	6530	6.052199464234	1
3	6531	6.052199464234	2
3	6539	6.060703464234	1
3	6540	6.060703464234	2
3	6552	6.069207464234	1
3	6553	6.069207464234	2
3	6565	6.077711464234	1
3	6566	6.077711464234	2
3	6574	6.086215464234	1
3	6575	6.086215464234	2
3	6583	6.094719464234	1
3	6595	6.100694534439	2
3	6598	6.109198534439	1
3	6609	6.124488285402	2
3	6619	6.132992285402	1
3	6620	6.132992285402	2
3	6635	6.141496285402	1
3	6636	6.141496285402	2
3	6648	6.150000285402	1
3	6649	6.150000285402	2
3	6661	6.158504285402	1
3	6662	6.158504285402	2
3	6670	6.167008285402	1
3	6671	6.167008285402	2
3	6683	6.175512285402	1
3	6684	6.175512285402	2
3	6696	6.184016285402	1
3	6697	6.184016285402	2
3	6705	6.192520285402	1
3	6706	6.192520285402	2
3	6719	6.201024285402	1
3	6720	6.201024285402	2
3	6736	6.209528285402	1
3	6737	6.209528285402	2
3	6745	6.218032285402	1
3	6746	6.218032285402	2
3	6758	6.226536285402	1
3	6759	6.226536285402	2
3	6767	6.235040285402	1
3	6779	6.24524912426	2
3	6781	6.25375312426	1
3	6791	6.254663804623	2
3	6801	6.263167804623	1
3	6802	6.263167804623	2
3	6810	6.271671804623	1
3	6811	6.271671804623	2
3	6831	6.280175804623	1
3	6832	6.280175804623	2
3	6844	6.288679804623	1
3	6845	6.288679804623	2
3	6853	6.297183804623	1
3	6854	6.297183804623	2
3	6863	6.305687804623	1
3	6864	6.305687804623	2
3	6872	6.314191804623	1
3	6883	6.319282052842	2
3	6898	6.327786052842	1
3	6899	6.327786052842	2
3	6910	6.336290052842	1
3	6911	6.336290052842	2
3	6923	6.344794052842	1
3	6924	6.344794052842	2
3	6944	6.353298052842	1
3	6945	6.353298052842	2
3	6953	6.361802052842	1
3	6954	6.361802052842	2
3	6966	6.370306052842	1
3	6967	6.370306052842	2
3	6979	6.378810052842	1
3	6980	6.378810052842	2
3	6988	6.387314052842	1
3	6989	6.387314052842	2
3	7001	6.395818052842	1
3	7002	6.395818052842	2
3	7011	6.404322052842	1
3	7012	6.404322052842	2
3	7020	6.412826052842	1
3	7021	6.412826052842	2
3	7029	6.421330052842	1
3	7040	6.425536554306	2
3	7047	6.434040554306	1
3	7048	6.434040554306	2
3	7059	6.442544554306	1
3	7060	6.442544554306	2
3	7072	6.451048554306	1
3	7073	6.451048554306	2
3	7081	6.459552554306	1
3	7091	6.45974077649	2
3	7094	6.46824477649	1
3	7106	6.499228562453	2
3	7113	6.507732562453	1
3	7114	6.507732562453	2
3	7125	6.516236562453	1
3	7126	6.516236562453	2
3	7134	6.524740562453	1
3	7145	6.53390392803	2
3	7148	6.54240792803	1
3	7158	6.54245940578	2
3	7164	6.55096340578	1
3	7165	6.55096340578	2
3	7173	6.55946740578	1
3	7184	6.566112238789	2
3	7195	6.574616238789	1
3	7196	6.574616238789	2
3	7203	6.583120238789	1
3	7204	6.583120238789	2
3	7216	6.591624238789	1
3	7217	6.591624238789	2
3	7234	6.600128238789	1
3	7235	6.600128238789	2
3	7251	6.608632238789	1
3	7252	6.608632238789	2
3	7260	6.617136238789	1
3	7261	6.617136238789	2
3	7273	6.625640238789	1
3	7274	6.625640238789	2
3	7282	6.634144238789	1
3	7283	6.634144238789	2
3	7291	6.642648238789	1
3	7302	6.645814556979	2
3	7305	6.654318556979	1
3	7315	6.65738855412	2
3	7322	6.66589255412	1
3	7323	6.66589255412	2
3	7330	6.67439655412	1
3	7343	6.706405042781	2
3	7345	6.714909042781	1
3	7356	6.731053672587	2
3	7362	6.739557672587	1
3	7363	6.739557672587	2
3	7370	6.748061672587	1
3	7382	6.77010312799	2
3	7384	6.77860712799	1
3	7394	6.779457548336	2
3	7396	6.787961548336	1
3	7409	6.81027273988	2
3	7411	6.81877673988	1
3	7422	6.831528979712	2
3	7424	6.840032979712	1
3	7435	6.872941101264	2
3	7437	6.881445101264	1
3	7449	6.9032173108	2
3	7459	6.9117213108	1
3	7460	6.9117213108	2
3	7471	6.9202253108	1
3	7472	6.9202253108	2
3	7480	6.9287293108	1
3	7481	6.9287293108	2
3	7489	6.9372333108	1
3	7501	6.948351770859	2
3	7511	6.956855770859	1
3	7512	6.956855770859	2
3	7519	6.965359770859	1
3	7520	6.965359770859	2
3	7528	6.973863770859	1
3	7539	6.980822083898	2
3	7546	6.989326083898	1
3	7547	6.989326083898	2
3	7554	6.997830083898	1
3	7567	7.016533101444	2
3	7573	7.025037101444	1
3	7574	7.025037101444	2
3	7585	7.033541101444	1
3	7586	7.033541101444	2
3	7602	7.042045101444	1
3	7603	7.042045101444	2
3	7611	7.050549101444	1
3	7612	7.050549101444	2
3	7636	7.059053101444	1
3	7637	7.059053101444	2
3	7649	7.067557101444	1
3	7650	7.067557101444	2
3	7658	7.076061101444	1
3	7659	7.076061101444	2
3	7667	7.084565101444	1
3	7668	7.084565101444	2
3	7680	7.093069101444	1
3	7681	7.093069101444	2
3	7690	7.101573101444	1
3	7691	7.101573101444	2
3	7703	7.110077101444	1
3	7704	7.110077101444	2
3	7712	7.118581101444	1
3	7724	7.13139004756	2
3	7726	7.13989404756	1
3	7736	7.144788270443	2
3	7739	7.153292270443	1
3	7749	7.153821506267	2
3	7755	7.162325506267	1
3	7756	7.162325506267	2
3	7764	7.170829506267	1
3	7777	7.232528993545	2
3	7783	7.241032993545	1
3	7784	7.241032993545	2
3	7795	7.249536993545	1
3	7796	7.249536993545	2
3	7808	7.258040993545	1
3	7809	7.258040993545	2
3	7817	7.266544993545	1
3	7829	7.29792504535	2
3	7840	7.30642904535	1
3	7841	7.30642904535	2
3	7848	7.31493304535	1
3	7849	7.31493304535	2
3	7865	7.32343704535	1
3	7866	7.32343704535	2
3	7878	7.33194104535	1
3	7879	7.33194104535	2
3	7891	7.34044504535	1
3	7892	7.34044504535	2
3	7908	7.34894904535	1
3	7909	7.34894904535	2
3	7921	7.35745304535	1
3	7922	7.35745304535	2
3	7934	7.36595704535	1
3	7935	7.36595704535	2
3	7951	7.37446104535	1
3	7952	7.37446104535	2
3	7960	7.38296504535	1
3	7961	7.38296504535	2
3	7969	7.39146904535	1
3	7970	7.39146904535	2
3	7978	7.39997304535	1
3	7979	7.39997304535	2
3	7988	7.40847704535	1
3	7999	7.414464726996	2
3	8014	7.422968726996	1
3	8015	7.422968726996	2
3	8022	7.431472726996	1
3	8023	7.431472726996	2
3	8035	7.439976726996	1
3	8036	7.439976726996	2
3	8048	7.448480726996	1
3	8049	7.448480726996	2
3	8061	7.456984726996	1
3	8062	7.456984726996	2
3	8070	7.465488726996	1
3	8071	7.465488726996	2
3	8079	7.473992726996	1
3	8092	7.538975951237	2
3	8098	7.547479951237	1
3	8099	7.547479951237	2
3	8106	7.555983951237	1
3	8117	7.559516370432	2
3	8120	7.568020370432	1
3	8130	7.571695877932	2
3	8133	7.580199877932	1
3	8144	7.591819094728	2
3	8147	7.600323094728	1
3	8158	7.636688876464	2
3	8160	7.645192876464	1
3	8171	7.66315368611	2
3	8173	7.67165768611	1
3	8183	7.680509376976	2
3	8186	7.689013376976	1
3	8196	7.69488719363	2
3	8212	7.70339119363	1
3	8213	7.70339119363	2
3	8224	7.71189519363	1
3	8225	7.71189519363	2
3	8237	7.72039919363	1
3	8238	7.72039919363	2
3	8250	7.72890319363	1
3	8251	7.72890319363	2
3	8259	7.73740719363	1
3	8260	7.73740719363	2
3	8272	7.74591119363	1
3	8273	7.74591119363	2
3	8281	7.75441519363	1
3	8282	7.75441519363	2
3	8290	7.76291919363	1
3	8302	7.777512799306	2
3	8312	7.786016799306	1
3	8313	7.786016799306	2
3	8324	7.794520799306	1
3	8325	7.794520799306	2
3	8334	7.803024799306	1
3	8335	7.803024799306	2
3	8347	7.811528799306	1
3	8348	7.811528799306	2
3	8356	7.820032799306	1
3	8368	7.830093665652	2
3	8370	7.838597665652	1
3	8381	7.863048688095	2
3	8383	7.871552688095	1
3	8395	7.912247899607	2
3	8401	7.920751899607	1
3	8402	7.920751899607	2
3	8417	7.929255899607	1
3	8418	7.929255899607	2
3	8426	7.937759899607	1
3	8427	7.937759899607	2
3	8439	7.946263899607	1
3	8440	7.946263899607	2
3	8452	7.954767899607	1
3	8453	7.954767899607	2
3	8461	7.963271899607	1
3	8473	7.976499221628	2
3	8479	7.985003221628	1
3	8480	7.985003221628	2
3	8491	7.993507221628	1
3	8492	7.993507221628	2
3	8513	8.002011221628	1
3	8514	8.002011221628	2
3	8522	8.010515221628	1
3	8523	8.010515221628	2
3	8531	8.019019221628	1
3	8532	8.019019221628	2
3	8548	8.027523221628	1
3	8549	8.027523221628	2
3	8565	8.036027221628	1
3	8566	8.036027221628	2
3	8578	8.044531221628	1
3	8579	8.044531221628	2
3	8587	8.053035221628	1
3	8588	8.053035221628	2
3	8596	8.061539221628	1
3	8597	8.061539221628	2
3	8605	8.070043221628	1
3	8617	8.089614223491	2
3	8623	8.098118223491	1
3	8624	8.098118223491	2
3	8632	8.106622223491	1
3	8644	8.119577293878	2
3	8654	8.128081293878	1
3	8655	8.128081293878	2
3	8666	8.136585293878	1
3	8667	8.136585293878	2
3	8679	8.145089293878	1
3	8680	8.145089293878	2
3	8692	8.153593293878	1
3	8693	8.153593293878	2
3	8705	8.162097293878	1
3	8706	8.162097293878	2
3	8714	8.170601293878	1
3	8715	8.170601293878	2
3	8727	8.179105293878	1
3	8728	8.179105293878	2
3	8740	8.187609293878	1
3	8741	8.187609293878	2
3	8757	8.196113293878	1
3	8758	8.196113293878	2
3	8767	8.204617293878	1
3	8768	8.204617293878	2
3	8784	8.213121293878	1
3	8785	8.213121293878	2
3	8793	8.221625293878	1
3	8794	8.221625293878	2
3	8806	8.230129293878	1
3	8807	8.230129293878	2
3	8815	8.238633293878	1
3	8826	8.241536153665	2
3	8829	8.250040153665	1
3	8839	8.257086687463	2
3	8842	8.265590687463	1
3	8852	8.266325030693	2
3	8862	8.274829030693	1
3	8863	8.274829030693	2
3	8875	8.283333030693	1
3	8876	8.283333030693	2
3	8892	8.291837030693	1
3	8893	8.291837030693	2
3	8902	8.300341030693	1
3	8903	8.300341030693	2
3	8919	8.308845030693	1
3	8920	8.308845030693	2
3	8932	8.317349030693	1
3	8933	8.317349030693	2
3	8941	8.325853030693	1
3	8942	8.325853030693	2
3	8954	8.334357030693	1
3	8955	8.334357030693	2
3	8967	8.342861030693	1
3	8968	8.342861030693	2
3	8976	8.351365030693	1
3	8977	8.351365030693	2
3	8985	8.359869030693	1
3	8997	8.378866852484	2
3	9003	8.387370852484	1
3	9004	8.387370852484	2
3	9011	8.395874852484	1
3	9023	8.404399199966	2
3	9030	8.412903199966	1
3	9031	8.412903199966	2
3	9046	8.421407199966	1
3	9047	8.421407199966	2
3	9059	8.429911199966	1
3	9060	8.429911199966	2
3	9080	8.438415199966	1
3	9081	8.438415199966	2
3	9093	8.446919199966	1
3	9094	8.446919199966	2
3	9102	8.455423199966	1
3	9103	8.455423199966	2
3	9111	8.463927199966	1
3	9112	8.463927199966	2
3	9124	8.472431199966	1
3	9125	8.472431199966	2
3	9149	8.480935199966	1
3	9150	8.480935199966	2
3	9178	8.489439199966	1
3	9179	8.489439199966	2
3	9187	8.497943199966	1
3	9188	8.497943199966	2
3	9197	8.506447199966	1
3	9198	8.506447199966	2
3	9214	8.514951199966	1
3	9215	8.514951199966	2
3	9223	8.523455199966	1
3	9224	8.523455199966	2
3	9236	8.531959199966	1
3	9237	8.531959199966	2
3	9245	8.540463199966	1
3	9246	8.540463199966	2
3	9262	8.548967199966	1
3	9263	8.548967199966	2
3	9279	8.557471199966	1
3	9280	8.557471199966	2
3	9292	8.565975199966	1
3	9293	8.565975199966	2
3	9305	8.574479199966	1
3	9306	8.574479199966	2
3	9318	8.582983199966	1
3	9319	8.582983199966	2
3	9327	8.591487199966	1
3	9328	8.591487199966	2
3	9340	8.599991199966	1
3	9341	8.599991199966	2
3	9350	8.608495199966	1
3	9351	8.608495199966	2
3	9363	8.616999199966	1
3	9364	8.616999199966	2
3	9372	8.625503199966	1
3	9373	8.625503199966	2
3	9381	8.634007199966	1
3	9382	8.634007199966	2
3	9398	8.642511199966	1
3	9399	8.642511199966	2
3	9407	8.651015199966	1
3	9408	8.651015199966	2
3	9416	8.659519199966	1
3	9417	8.659519199966	2
3	9425	8.668023199966	1
3	9426	8.668023199966	2
3	9442	8.676527199966	1
3	9443	8.676527199966	2
3	9451	8.685031199966	1
3	9452	8.685031199966	2
3	9460	8.693535199966	1
3	9461	8.693535199966	2
3	9474	8.702039199966	1
3	9475	8.702039199966	2
3	9483	8.710543199966	1
3	9494	8.713791191598	2
3	9497	8.722295191598	1
3	9508	8.766231188615	2
3	9510	8.774735188615	1
3	9520	8.783320760803	2
3	9527	8.791824760803	1
3	9528	8.791824760803	2
3	9540	8.800328760803	1
3	9541	8.800328760803	2
3	9557	8.808832760803	1
3	9558	8.808832760803	2
3	9570	8.817336760803	1
3	9571	8.817336760803	2
3	9583	8.825840760803	1
3	9584	8.825840760803	2
3	9596	8.834344760803	1
3	9597	8.834344760803	2
3	9609	8.842848760803	1
3	9610	8.842848760803	2
3	9634	8.851352760803	1
3	9635	8.851352760803	2
3	9643	8.859856760803	1
3	9644	8.859856760803	2
3	9652	8.868360760803	1
3	9653	8.868360760803	2
3	9661	8.876864760803	1
3	9662	8.876864760803	2
3	9670	8.885368760803	1
3	9671	8.885368760803	2
3	9687	8.893872760803	1
3	9688	8.893872760803	2
3	9701	8.902376760803	1
3	9702	8.902376760803	2
3	9718	8.910880760803	1
3	9719	8.910880760803	2
3	9727	8.919384760803	1
3	9728	8.919384760803	2
3	9736	8.927888760803	1
3	9737	8.927888760803	2
3	9749	8.936392760803	1
3	9750	8.936392760803	2
3	9758	8.944896760803	1
3	9769	8.948868625561	2
3	9772	8.957372625561	1
3	9783	8.989583794137	2
3	9789	8.998087794137	1
3	9790	8.998087794137	2
3	9802	9.006591794137	1
3	9803	9.006591794137	2
3	9815	9.015095794137	1
3	9816	9.015095794137	2
3	9824	9.023599794137	1
3	9836	9.043994329977	2
3	9838	9.052498329977	1
3	9848	9.052821011036	2
3	9854	9.061325011036	1
3	9855	9.061325011036	2
3	9863	9.069829011036	1
3	9875	9.081737536936	2
3	9885	9.090241536936	1
3	9886	9.090241536936	2
3	9901	9.098745536936	1
3	9902	9.098745536936	2
3	9911	9.107249536936	1
3	9912	9.107249536936	2
3	9920	9.115753536936	1
3	9921	9.115753536936	2
3	9933	9.124257536936	1
3	9934	9.124257536936	2
3	9946	9.132761536936	1
3	9947	9.132761536936	2
3	9963	9.141265536936	1
3	9964	9.141265536936	2
3	9972	9.149769536936	1
3	9973	9.149769536936	2
3	9981	9.158273536936	1
3	9992	9.163680452625	2
3	9995	9.172184452625	1
3	10006	9.198491361119	2
3	10009	9.206995361119	1
3	10020	9.256267737116	2
3	10026	9.264771737116	1
3	10027	9.264771737116	2
3	10034	9.273275737116	1
3	10047	9.302570150488	2
3	10049	9.311074150488	1
3	10060	9.321405810743	2
3	10062	9.329909810743	1
3	10072	9.334918444315	2
3	10087	9.343422444315	1
3	10088	9.343422444315	2
3	10095	9.351926444315	1
3	10096	9.351926444315	2
3	10104	9.360430444315	1
3	10105	9.360430444315	2
3	10113	9.368934444315	1
3	10124	9.374124771808	2
3	10131	9.382628771808	1
3	10132	9.382628771808	2
3	10143	9.391132771808	1
3	10144	9.391132771808	2
3	10156	9.399636771808	1
3	10157	9.399636771808	2
3	10166	9.408140771808	1
3	10177	9.411789337981	2
3	10180	9.420293337981	1
3	10191	9.43410221685	2
3	10201	9.44260621685	1
3	10202	9.44260621685	2
3	10209	9.45111021685	1
3	10210	9.45111021685	2
3	10218	9.45961421685	1
3	10229	9.464786619077	2
3	10232	9.473290619077	1
3	10243	9.48523379833	2
3	10257	9.49373779833	1
3	10258	9.49373779833	2
3	10278	9.50224179833	1
3	10279	9.50224179833	2
3	10287	9.51074579833	1
3	10288	9.51074579833	2
3	10304	9.51924979833	1
3	10305	9.51924979833	2
3	10321	9.52775379833	1
3	10322	9.52775379833	2
3	10330	9.53625779833	1
3	10331	9.53625779833	2
3	10339	9.54476179833	1
3	10340	9.54476179833	2
3	10348	9.55326579833	1
3	10349	9.55326579833	2
3	10357	9.56176979833	1
3	10358	9.56176979833	2
3	10366	9.57027379833	1
3	10367	9.57027379833	2
3	10379	9.57877779833	1
3	10380	9.57877779833	2
3	10388	9.58728179833	1
3	10401	9.604784843661	2
3	10407	9.613288843661	1
3	10408	9.613288843661	2
3	10423	9.621792843661	1
3	10424	9.621792843661	2
3	10440	9.630296843661	1
3	10441	9.630296843661	2
3	10453	9.638800843661	1
3	10454	9.638800843661	2
3	10466	9.647304843661	1
3	10467	9.647304843661	2
3	10479	9.655808843661	1
3	10480	9.655808843661	2
3	10488	9.664312843661	1
3	10489	9.664312843661	2
3	10501	9.672816843661	1
3	10502	9.672816843661	2
3	10510	9.681320843661	1
3	10511	9.681320843661	2
3	10523	9.689824843661	1
3	10524	9.689824843661	2
3	10532	9.698328843661	1
3	10545	9.721927110054	2
3	10551	9.730431110054	1
3	10552	9.730431110054	2
3	10559	9.738935110054	1
3	10571	9.754472021242	2
3	10573	9.762976021242	1
3	10583	9.772106421032	2
3	10590	9.780610421032	1
3	10591	9.780610421032	2
3	10602	9.789114421032	1
3	10603	9.789114421032	2
3	10615	9.797618421032	1
3	10616	9.797618421032	2
3	10625	9.806122421032	1
3	10637	9.818058958904	2
3	10651	9.826562958904	1
3	10652	9.826562958904	2
3	10663	9.835066958904	1
3	10664	9.835066958904	2
3	10672	9.843570958904	1
3	10673	9.843570958904	2
3	10685	9.852074958904	1
3	10686	9.852074958904	2
3	10698	9.860578958904	1
3	10699	9.860578958904	2
3	10715	9.869082958904	1
3	10716	9.869082958904	2
3	10736	9.877586958904	1
3	10737	9.877586958904	2
3	10745	9.886090958904	1
3	10746	9.886090958904	2
3	10754	9.894594958904	1
3	10755	9.894594958904	2
3	10764	9.903098958904	1
3	10765	9.903098958904	2
3	10781	9.911602958904	1
3	10782	9.911602958904	2
3	10790	9.920106958904	1
3	10791	9.920106958904	2
3	10799	9.928610958904	1
3	10800	9.928610958904	2
3	10812	9.937114958904	1
3	10813	9.937114958904	2
3	10821	9.945618958904	1
3	10832	9.952813483804	2
3	10839	9.961317483804	1
3	10840	9.961317483804	2
3	10855	9.969821483804	1
3	10856	9.969821483804	2
3	10864	9.978325483804	1
3	10865	9.978325483804	2
3	10877	9.986829483804	1
3	10878	9.986829483804	2
3	10890	9.995333483804	1
3	10891	9.995333483804	2
3	10900	10.003837483804	1
3	10912	10.01538247145	2
3	10918	10.02388647145	1
3	10919	10.02388647145	2
3	10926	10.03239047145	1
3	10938	10.052777330447	2
3	10948	10.061281330447	1
3	10949	10.061281330447	2
3	10956	10.069785330447	1
3	10957	10.069785330447	2
3	10969	10.078289330447	1
3	10970	10.078289330447	2
3	10990	10.086793330447	1
3	10991	10.086793330447	2
3	10999	10.095297330447	1
3	11000	10.095297330447	2
3	11013	10.103801330447	1
3	11014	10.103801330447	2
3	11026	10.112305330447	1
3	11027	10.112305330447	2
3	11035	10.120809330447	1
3	11036	10.120809330447	2
3	11044	10.129313330447	1
3	11055	10.136511199092	2
3	11058	10.145015199092	1
3	11068	10.152370280366	2
3	11075	10.160874280366	1
3	11076	10.160874280366	2
3	11087	10.169378280366	1
3	11088	10.169378280366	2
3	11100	10.177882280366	1
3	11101	10.177882280366	2
3	11109	10.186386280366	1
3	11121	10.199392059481	2
3	11124	10.207896059481	1
3	11134	10.215431991946	2
3	11141	10.223935991946	1
3	11142	10.223935991946	2
3	11153	10.232439991946	1
3	11154	10.232439991946	2
3	11162	10.240943991946	1
3	11174	10.259945303094	2
3	11176	10.268449303094	1
3	11186	10.274818668999	2
3	11193	10.283322668999	1
3	11194	10.283322668999	2
3	11209	10.291826668999	1
3	11210	10.291826668999	2
3	11223	10.300330668999	1
3	11224	10.300330668999	2
3	11232	10.308834668999	1
3	11233	10.308834668999	2
3	11241	10.317338668999	1
3	11252	10.325433591871	2
3	11255	10.333937591871	1
3	11266	10.356248664508	2
3	11272	10.364752664508	1
3	11273	10.364752664508	2
3	11284	10.373256664508	1
3	11285	10.373256664508	2
3	11297	10.381760664508	1
3	11298	10.381760664508	2
3	11306	10.390264664508	1
3	11319	10.415845650437	2
3	11329	10.424349650437	1
3	11330	10.424349650437	2
3	11337	10.432853650437	1
3	11338	10.432853650437	2
3	11346	10.441357650437	1
3	11357	10.44614379017	2
3	11364	10.45464779017	1
3	11365	10.45464779017	2
3	11372	10.46315179017	1
3	11384	10.481775526228	2
3	11390	10.490279526228	1
3	11391	10.490279526228	2
3	11406	10.498783526228	1
3	11407	10.498783526228	2
3	11420	10.507287526228	1
3	11421	10.507287526228	2
3	11433	10.515791526228	1
3	11434	10.515791526228	2
3	11450	10.524295526228	1
3	11451	10.524295526228	2
3	11459	10.532799526228	1
3	11460	10.532799526228	2
3	11468	10.541303526228	1
3	11469	10.541303526228	2
3	11477	10.549807526228	1
3	11488	10.551472165921	2
3	11491	10.559976165921	1
3	11501	10.567261936702	2
3	11504	10.575765936702	1
3	11514	10.582865406406	2
3	11521	10.591369406406	1
3	11522	10.591369406406	2
3	11533	10.599873406406	1
3	11534	10.599873406406	2
3	11543	10.608377406406	1
3	11554	10.615443424712	2
3	11557	10.623947424712	1
3	11568	10.634494976163	2
3	11574	10.642998976163	1
3	11575	10.642998976163	2
3	11582	10.651502976163	1
3	11593	10.657245550876	2
3	11596	10.665749550876	1
3	11606	10.673222403081	2
3	11613	10.681726403081	1
3	11614	10.681726403081	2
3	11621	10.690230403081	1
3	11632	10.699167420259	2
3	11640	10.707671420259	1
3	11641	10.707671420259	2
3	11652	10.716175420259	1
3	11653	10.716175420259	2
3	11665	10.724679420259	1
3	11666	10.724679420259	2
3	11678	10.733183420259	1
3	11679	10.733183420259	2
3	11687	10.741687420259	1
3	11697	10.743003746849	2
3	11704	10.751507746849	1
3	11705	10.751507746849	2
3	11713	10.760011746849	1
3	11725	10.775467711484	2
3	11727	10.783971711484	1
3	11737	10.787325495322	2
3	11744	10.795829495322	1
3	11745	10.795829495322	2
3	11757	10.804333495322	1
3	11758	10.804333495322	2
3	11766	10.812837495322	1
3	11777	10.819934326728	2
3	11788	10.828438326728	1
3	11789	10.828438326728	2
3	11800	10.836942326728	1
3	11801	10.836942326728	2
3	11809	10.845446326728	1
3	11810	10.845446326728	2
3	11822	10.853950326728	1
3	11823	10.853950326728	2
3	11831	10.862454326728	1
3	11843	10.883800759415	2
3	11853	10.892304759415	1
3	11854	10.892304759415	2
3	11870	10.900808759415	1
3	11871	10.900808759415	2
3	11879	10.909312759415	1
3	11880	10.909312759415	2
3	11888	10.917816759415	1
3	11889	10.917816759415	2
3	11905	10.926320759415	1
3	11906	10.926320759415	2
3	11914	10.934824759415	1
3	11915	10.934824759415	2
3	11923	10.943328759415	1
3	11935	10.969571621382	2
3	11941	10.978075621382	1
3	11942	10.978075621382	2
3	11949	10.986579621382	1
3	11960	10.994683306469	2
3	11964	11.003187306469	1
3	11974	11.004713837279	2
3	11981	11.013217837279	1
3	11982	11.013217837279	2
3	11993	11.021721837279	1
3	11994	11.021721837279	2
3	12002	11.030225837279	1
3	12013	11.032241832784	2
3	12020	11.040745832784	1
3	12021	11.040745832784	2
3	12028	11.049249832784	1
3	12038	11.049625857806	2
3	12041	11.058129857806	1
3	12051	11.058366825511	2
3	12058	11.066870825511	1
3	12059	11.066870825511	2
3	12067	11.075374825511	1
3	12079	11.094100384513	2
3	12082	11.102604384513	1
3	12092	11.103806988776	2
3	12094	11.112310988776	1
3	12106	11.124850956984	2
3	12108	11.133354956984	1
3	12118	11.140367820239	2
3	12125	11.148871820239	1
3	12126	11.148871820239	2
3	12133	11.157375820239	1
3	12143	11.158639145618	2
3	12150	11.167143145618	1
3	12151	11.167143145618	2
3	12159	11.175647145618	1
3	12171	11.189587686994	2
3	12185	11.198091686994	1
3	12186	11.198091686994	2
3	12198	11.206595686994	1
3	12199	11.206595686994	2
3	12207	11.215099686994	1
3	12208	11.215099686994	2
3	12216	11.223603686994	1
3	12217	11.223603686994	2
3	12237	11.232107686994	1
3	12238	11.232107686994	2
3	12250	11.240611686994	1
3	12251	11.240611686994	2
3	12259	11.249115686994	1
3	12260	11.249115686994	2
3	12276	11.257619686994	1
3	12277	11.257619686994	2
3	12293	11.266123686994	1
3	12294	11.266123686994	2
3	12302	11.274627686994	1
3	12303	11.274627686994	2
3	12319	11.283131686994	1
3	12320	11.283131686994	2
3	12332	11.291635686994	1
3	12333	11.291635686994	2
3	12342	11.300139686994	1
3	12343	11.300139686994	2
3	12359	11.308643686994	1
3	12360	11.308643686994	2
3	12368	11.317147686994	1
3	12369	11.317147686994	2
3	12381	11.325651686994	1
3	12382	11.325651686994	2
3	12390	11.334155686994	1
3	12391	11.334155686994	2
3	12399	11.342659686994	1
3	12400	11.342659686994	2
3	12416	11.351163686994	1
3	12417	11.351163686994	2
3	12425	11.359667686994	1
3	12426	11.359667686994	2
3	12434	11.368171686994	1
3	12446	11.389370622169	2
3	12456	11.397874622169	1
3	12457	11.397874622169	2
3	12473	11.406378622169	1
3	12474	11.406378622169	2
3	12486	11.414882622169	1
3	12487	11.414882622169	2
3	12499	11.423386622169	1
3	12500	11.423386622169	2
3	12508	11.431890622169	1
3	12509	11.431890622169	2
3	12517	11.440394622169	1
3	12518	11.440394622169	2
3	12530	11.448898622169	1
3	12531	11.448898622169	2
3	12539	11.457402622169	1
3	12551	11.469281165422	2
3	12557	11.477785165422	1
3	12558	11.477785165422	2
3	12573	11.486289165422	1
3	12574	11.486289165422	2
3	12586	11.494793165422	1
3	12587	11.494793165422	2
3	12604	11.503297165422	1
3	12605	11.503297165422	2
3	12617	11.511801165422	1
3	12618	11.511801165422	2
3	12626	11.520305165422	1
3	12627	11.520305165422	2
3	12643	11.528809165422	1
3	12644	11.528809165422	2
3	12652	11.537313165422	1
3	12653	11.537313165422	2
3	12661	11.545817165422	1
3	12662	11.545817165422	2
3	12674	11.554321165422	1
3	12675	11.554321165422	2
3	12683	11.562825165422	1
3	12694	11.567752769304	2
3	12701	11.576256769304	1
3	12702	11.576256769304	2
3	12709	11.584760769304	1
3	12722	11.603677334271	2
3	12728	11.612181334271	1
3	12729	11.612181334271	2
3	12736	11.620685334271	1
3	12749	11.714879777324	2
3	12755	11.723383777324	1
3	12756	11.723383777324	2
3	12771	11.731887777324	1
3	12772	11.731887777324	2
3	12784	11.740391777324	1
3	12785	11.740391777324	2
3	12797	11.748895777324	1
3	12798	11.748895777324	2
3	12806	11.757399777324	1
3	12807	11.757399777324	2
3	12815	11.765903777324	1
3	12827	11.776468459716	2
3	12829	11.784972459716	1
3	12840	11.796101776603	2
3	12843	11.804605776603	1
3	12853	11.811547481873	2
3	12856	11.820051481873	1
3	12866	11.821376736394	2
3	12868	11.829880736394	1
3	12880	11.852035305871	2
3	12886	11.860539305871	1
3	12887	11.860539305871	2
3	12894	11.869043305871	1
3	12906	11.88501284019	2
3	12908	11.89351684019	1
3	12920	11.906560723456	2
3	12926	11.915064723456	1
3	12927	11.915064723456	2
3	12934	11.923568723456	1
3	12945	11.927148011564	2
3	12960	11.935652011564	1
3	12961	11.935652011564	2
3	12972	11.944156011564	1
3	12973	11.944156011564	2
3	12981	11.952660011564	1
3	12982	11.952660011564	2
3	12998	11.961164011564	1
3	12999	11.961164011564	2
3	13011	11.969668011564	1
3	13012	11.969668011564	2
3	13020	11.978172011564	1
3	13021	11.978172011564	2
3	13029	11.986676011564	1
3	13030	11.986676011564	2
3	13038	11.995180011564	1
3	13050	12.002968921421	2
3	13057	12.011472921421	1
3	13058	12.011472921421	2
3	13069	12.019976921421	1
3	13070	12.019976921421	2
3	13078	12.028480921421	1
3	13089	12.030434480195	2
3	13100	12.038938480195	1
3	13101	12.038938480195	2
3	13108	12.047442480195	1
3	13109	12.047442480195	2
3	13125	12.055946480195	1
3	13126	12.055946480195	2
3	13134	12.064450480195	1
3	13135	12.064450480195	2
3	13143	12.072954480195	1
3	13154	12.079045825267	2
3	13157	12.087549825267	1
3	13167	12.087855491063	2
3	13177	12.096359491063	1
3	13178	12.096359491063	2
3	13187	12.104863491063	1
3	13188	12.104863491063	2
3	13196	12.113367491063	1
3	13208	12.128143876901	2
3	13210	12.136647876901	1
3	13220	12.138620345522	2
3	13231	12.147124345522	1
3	13232	12.147124345522	2
3	13247	12.155628345522	1
3	13248	12.155628345522	2
3	13260	12.164132345522	1
3	13261	12.164132345522	2
3	13277	12.172636345522	1
3	13278	12.172636345522	2
3	13290	12.181140345522	1
3	13291	12.181140345522	2
3	13299	12.189644345522	1
3	13300	12.189644345522	2
3	13312	12.198148345522	1
3	13313	12.198148345522	2
3	13326	12.206652345522	1
3	13327	12.206652345522	2
3	13339	12.215156345522	1
3	13340	12.215156345522	2
3	13348	12.223660345522	1
3	13349	12.223660345522	2
3	13361	12.232164345522	1
3	13362	12.232164345522	2
3	13370	12.240668345522	1
3	13371	12.240668345522	2
3	13379	12.249172345522	1
3	13391	12.259568446036	2
3	13393	12.268072446036	1
3	13403	12.277644317983	2
3	13406	12.286148317983	1
3	13418	12.300278103906	2
3	13424	12.308782103906	1
3	13425	12.308782103906	2
3	13436	12.317286103906	1
3	13437	12.317286103906	2
3	13445	12.325790103906	1
3	13457	12.376543888566	2
3	13463	12.385047888566	1
3	13464	12.385047888566	2
3	13479	12.393551888566	1
3	13480	12.393551888566	2
3	13489	12.402055888566	1
3	13490	12.402055888566	2
3	13498	12.410559888566	1
3	13510	12.421260925053	2
3	13512	12.429764925053	1
3	13523	12.461464106321	2
3	13525	12.469968106321	1
3	13535	12.476713539754	2
3	13542	12.485217539754	1
3	13543	12.485217539754	2
3	13562	12.493721539754	1
3	13563	12.493721539754	2
3	13580	12.502225539754	1
3	13581	12.502225539754	2
3	13593	12.510729539754	1
3	13594	12.510729539754	2
3	13606	12.519233539754	1
3	13607	12.519233539754	2
3	13615	12.527737539754	1
3	13616	12.527737539754	2
3	13632	12.536241539754	1
3	13633	12.536241539754	2
3	13645	12.544745539754	1
3	13646	12.544745539754	2
3	13658	12.553249539754	1
3	13659	12.553249539754	2
3	13667	12.561753539754	1
3	13668	12.561753539754	2
3	13676	12.570257539754	1
3	13677	12.570257539754	2
3	13689	12.578761539754	1
3	13690	12.578761539754	2
3	13702	12.587265539754	1
3	13703	12.587265539754	2
3	13711	12.595769539754	1
3	13712	12.595769539754	2
3	13721	12.604273539754	1
3	13733	12.625772679224	2
3	13743	12.634276679224	1
3	13744	12.634276679224	2
3	13759	12.642780679224	1
3	13760	12.642780679224	2
3	13768	12.651284679224	1
3	13769	12.651284679224	2
3	13777	12.659788679224	1
3	13778	12.659788679224	2
3	13794	12.668292679224	1
3	13795	12.668292679224	2
3	13807	12.676796679224	1
3	13808	12.676796679224	2
3	13816	12.685300679224	1
3	13817	12.685300679224	2
3	13829	12.693804679224	1
3	13830	12.693804679224	2
3	13839	12.702308679224	1
3	13849	12.703464023574	2
3	13852	12.711968023574	1
3	13863	12.713262759547	2
3	13865	12.721766759547	1
3	13876	12.727910006009	2
3	13891	12.736414006009	1
3	13892	12.736414006009	2
3	13911	12.744918006009	1
3	13912	12.744918006009	2
3	13920	12.753422006009	1
3	13921	12.753422006009	2
3	13929	12.761926006009	1
3	13930	12.761926006009	2
3	13938	12.770430006009	1
3	13939	12.770430006009	2
3	13947	12.778934006009	1
3	13948	12.778934006009	2
3	13960	12.787438006009	1
3	13961	12.787438006009	2
3	13969	12.795942006009	1
3	13982	12.808797854672	2
3	13992	12.817301854672	1
3	13993	12.817301854672	2
3	14000	12.825805854672	1
3	14001	12.825805854672	2
3	14009	12.834309854672	1
3	14021	12.844883920448	2
3	14031	12.853387920448	1
3	14032	12.853387920448	2
3	14039	12.861891920448	1
3	14040	12.861891920448	2
3	14056	12.870395920448	1
3	14057	12.870395920448	2
3	14069	12.878899920448	1
3	14070	12.878899920448	2
3	14078	12.887403920448	1
3	14079	12.887403920448	2
3	14087	12.895907920448	1
3	14100	12.914763452528	2
3	14102	12.923267452528	1
3	14112	12.927005373264	2
3	14115	12.935509373264	1
3	14125	12.935829960173	2
3	14131	12.944333960173	1
3	14132	12.944333960173	2
3	14140	12.952837960173	1
3	14151	12.959791584487	2
3	14158	12.968295584487	1
3	14159	12.968295584487	2
3	14166	12.976799584487	1
3	14179	13.002673267744	2
3	14181	13.011177267744	1
3	14192	13.026363268028	2
3	14194	13.034867268028	1
3	14204	13.037900513299	2
3	14211	13.046404513299	1
3	14212	13.046404513299	2
3	14223	13.054908513299	1
3	14224	13.054908513299	2
3	14232	13.063412513299	1
3	14244	13.082250158114	2
3	14246	13.090754158114	1
3	14256	13.091172763962	2
3	14266	13.099676763962	1
3	14267	13.099676763962	2
3	14276	13.108180763962	1
3	14277	13.108180763962	2
3	14289	13.116684763962	1
3	14290	13.116684763962	2
3	14298	13.125188763962	1
3	14310	13.140787473859	2
3	14316	13.149291473859	1
3	14317	13.149291473859	2
3	14324	13.157795473859	1
3	14334	13.159129888304	2
3	14341	13.167633888304	1
3	14342	13.167633888304	2
3	14350	13.176137888304	1
3	14363	13.200291339774	2
3	14365	13.208795339774	1
3	14375	13.211747291793	2
3	14378	13.220251291793	1
3	14388	13.221394602606	2
3	14394	13.229898602606	1
3	14395	13.229898602606	2
3	14403	13.238402602606	1
3	14415	13.257395773752	2
3	14421	13.265899773752	1
3	14422	13.265899773752	2
3	14429	13.274403773752	1
3	14440	13.282238548558	2
3	14443	13.290742548558	1
3	14455	13.332722268001	2
3	14457	13.341226268001	1
3	14467	13.351078517217	2
3	14470	13.359582517217	1
3	14480	13.359860921691	2
3	14490	13.368364921691	1
3	14491	13.368364921691	2
3	14503	13.376868921691	1
3	14504	13.376868921691	2
3	14520	13.385372921691	1
3	14521	13.385372921691	2
3	14537	13.393876921691	1
3	14538	13.393876921691	2
3	14551	13.402380921691	1
3	14552	13.402380921691	2
3	14564	13.410884921691	1
3	14565	13.410884921691	2
3	14581	13.419388921691	1
3	14582	13.419388921691	2
3	14590	13.427892921691	1
3	14591	13.427892921691	2
3	14599	13.436396921691	1
3	14600	13.436396921691	2
3	14612	13.444900921691	1
3	14613	13.444900921691	2
3	14621	13.453404921691	1
3	14622	13.453404921691	2
3	14634	13.461908921691	1
3	14635	13.461908921691	2
3	14647	13.470412921691	1
3	14648	13.470412921691	2
3	14656	13.478916921691	1
3	14657	13.478916921691	2
3	14665	13.487420921691	1
3	14676	13.493302162134	2
3	14680	13.501806162134	1
3	14691	13.532669604283	2
3	14697	13.541173604283	1
3	14698	13.541173604283	2
3	14709	13.549677604283	1
3	14710	13.549677604283	2
3	14718	13.558181604283	1
3	14731	13.620572462154	2
3	14733	13.629076462154	1
3	14744	13.673536323404	2
3	14746	13.682040323404	1
3	14756	13.684631918441	2
3	14763	13.693135918441	1
3	14764	13.693135918441	2
3	14784	13.701639918441	1
3	14785	13.701639918441	2
3	14793	13.710143918441	1
3	14794	13.710143918441	2
3	14802	13.718647918441	1
3	14803	13.718647918441	2
3	14811	13.727151918441	1
3	14822	13.736980003678	2
3	14829	13.745484003678	1
3	14830	13.745484003678	2
3	14837	13.753988003678	1
3	14847	13.753999899386	2
3	14854	13.762503899386	1
3	14855	13.762503899386	2
3	14863	13.771007899386	1
3	14875	13.793393387364	2
3	14878	13.801897387364	1
3	14888	13.80904150128	2
3	14895	13.81754550128	1
3	14896	13.81754550128	2
3	14903	13.82604950128	1
3	14914	13.832669835932	2
3	14925	13.841173835932	1
3	14926	13.841173835932	2
3	14937	13.849677835932	1
3	14938	13.849677835932	2
3	14954	13.858181835932	1
3	14955	13.858181835932	2
3	14967	13.866685835932	1
3	14968	13.866685835932	2
3	14980	13.875189835932	1
3	14981	13.875189835932	2
3	14997	13.883693835932	1
3	14998	13.883693835932	2
3	15006	13.892197835932	1
3	15007	13.892197835932	2
3	15024	13.900701835932	1
3	15025	13.900701835932	2
3	15037	13.909205835932	1
3	15038	13.909205835932	2
3	15054	13.917709835932	1
3	15055	13.917709835932	2
3	15063	13.926213835932	1
3	15064	13.926213835932	2
3	15072	13.934717835932	1
3	15073	13.934717835932	2
3	15085	13.943221835932	1
3	15086	13.943221835932	2
3	15094	13.951725835932	1
3	15095	13.951725835932	2
3	15103	13.960229835932	1
3	15104	13.960229835932	2
3	15112	13.968733835932	1
3	15123	13.972388614115	2
3	15130	13.980892614115	1
3	15131	13.980892614115	2
3	15138	13.989396614115	1
3	15149	13.9979959035	2
3	15157	14.0064999035	1
3	15158	14.0064999035	2
3	15169	14.0150039035	1
3	15170	14.0150039035	2
3	15178	14.0235079035	1
3	15189	14.028059606374	2
3	15196	14.036563606374	1
3	15197	14.036563606374	2
3	15208	14.045067606374	1
3	15209	14.045067606374	2
3	15217	14.053571606374	1
3	15228	14.063542407908	2
3	15239	14.072046407908	1
3	15240	14.072046407908	2
3	15251	14.080550407908	1
3	15252	14.080550407908	2
3	15264	14.089054407908	1
3	15265	14.089054407908	2
3	15273	14.097558407908	1
3	15274	14.097558407908	2
3	15287	14.106062407908	1
3	15288	14.106062407908	2
3	15296	14.114566407908	1
3	15308	14.132725928241	2
3	15314	14.141229928241	1
3	15315	14.141229928241	2
3	15326	14.149733928241	1
3	15327	14.149733928241	2
3	15339	14.158237928241	1
3	15340	14.158237928241	2
3	15352	14.166741928241	1
3	15353	14.166741928241	2
3	15361	14.175245928241	1
3	15374	14.211042529821	2
3	15376	14.219546529821	1
3	15386	14.225383885758	2
3	15393	14.233887885758	1
3	15394	14.233887885758	2
3	15405	14.242391885758	1
3	15406	14.242391885758	2
3	15414	14.250895885758	1
3	15426	14.269704757488	2
3	15432	14.278208757488	1
3	15433	14.278208757488	2
3	15440	14.286712757488	1
3	15450	14.286739664877	2
3	15453	14.295243664877	1
3	15466	14.317886242149	2
3	15468	14.326390242149	1
3	15478	14.330997766101	2
3	15485	14.339501766101	1
3	15486	14.339501766101	2
3	15501	14.348005766101	1
3	15502	14.348005766101	2
3	15510	14.356509766101	1
3	15511	14.356509766101	2
3	15523	14.365013766101	1
3	15524	14.365013766101	2
3	15536	14.373517766101	1
3	15537	14.373517766101	2
3	15545	14.382021766101	1
3	15558	14.404633630914	2
3	15560	14.413137630914	1
3	15571	14.428829961941	2
3	15573	14.437333961941	1
3	15584	14.449153631888	2
3	15586	14.457657631888	1
3	15597	14.478244004937	2
3	15603	14.486748004937	1
3	15604	14.486748004937	2
3	15619	14.495252004937	1
3	15620	14.495252004937	2
3	15633	14.503756004937	1
3	15634	14.503756004937	2
3	15642	14.512260004937	1
3	15643	14.512260004937	2
3	15659	14.520764004937	1
3	15660	14.520764004937	2
3	15676	14.529268004937	1
3	15677	14.529268004937	2
3	15689	14.537772004937	1
3	15690	14.537772004937	2
3	15698	14.546276004937	1
3	15699	14.546276004937	2
3	15707	14.554780004937	1
3	15708	14.554780004937	2
3	15716	14.563284004937	1
3	15727	14.565536240248	2
3	15730	14.574040240248	1
3	15741	14.591835748037	2
3	15744	14.600339748037	1
3	15755	14.615455761319	2
3	15757	14.623959761319	1
3	15767	14.62815691902	2
3	15774	14.63666091902	1
3	15775	14.63666091902	2
3	15786	14.64516491902	1
3	15787	14.64516491902	2
3	15795	14.65366891902	1
3	15806	14.663036188375	2
3	15813	14.671540188375	1
3	15814	14.671540188375	2
3	15821	14.680044188375	1
3	15832	14.683659921946	2
3	15839	14.692163921946	1
3	15840	14.692163921946	2
3	15848	14.700667921946	1
3	15859	14.704505866641	2
3	15862	14.713009866641	1
3	15873	14.724281754274	2
3	15879	14.732785754274	1
3	15880	14.732785754274	2
3	15891	14.741289754274	1
3	15892	14.741289754274	2
3	15912	14.749793754274	1
3	15913	14.749793754274	2
3	15921	14.758297754274	1
3	15922	14.758297754274	2
3	15930	14.766801754274	1
3	15931	14.766801754274	2
3	15943	14.775305754274	1
3	15944	14.775305754274	2
3	15956	14.783809754274	1
3	15957	14.783809754274	2
3	15965	14.792313754274	1
3	15978	14.826051481114	2
3	15980	14.834555481114	1
3	15991	14.874426418201	2
3	15993	14.882930418201	1
3	16005	14.933410852154	2
3	16011	14.941914852154	1
3	16012	14.941914852154	2
3	16019	14.950418852154	1
3	16031	14.968343115546	2
3	16037	14.976847115546	1
3	16038	14.976847115546	2
3	16049	14.985351115546	1
3	16050	14.985351115546	2
3	16058	14.993855115546	1
3	16069	14.996059718828	2
3	16077	15.004563718828	1
3	16078	15.004563718828	2
3	16097	15.013067718828	1
3	16098	15.013067718828	2
3	16118	15.021571718828	1
3	16119	15.021571718828	2
3	16131	15.030075718828	1
3	16132	15.030075718828	2
3	16140	15.038579718828	1
3	16141	15.038579718828	2
3	16161	15.047083718828	1
3	16162	15.047083718828	2
3	16182	15.055587718828	1
3	16183	15.055587718828	2
3	16191	15.064091718828	1
3	16192	15.064091718828	2
3	16200	15.072595718828	1
3	16201	15.072595718828	2
3	16209	15.081099718828	1
3	16210	15.081099718828	2
3	16218	15.089603718828	1
3	16219	15.089603718828	2
3	16235	15.098107718828	1
3	16236	15.098107718828	2
3	16245	15.106611718828	1
3	16246	15.106611718828	2
3	16254	15.115115718828	1
3	16255	15.115115718828	2
3	16267	15.123619718828	1
3	16268	15.123619718828	2
3	16280	15.132123718828	1
3	16281	15.132123718828	2
3	16293	15.140627718828	1
3	16294	15.140627718828	2
3	16306	15.149131718828	1
3	16307	15.149131718828	2
3	16315	15.157635718828	1
3	16316	15.157635718828	2
3	16324	15.166139718828	1
3	16325	15.166139718828	2
3	16333	15.174643718828	1
3	16345	15.187336962119	2
3	16351	15.195840962119	1
3	16352	15.195840962119	2
3	16360	15.204344962119	1
3	16371	15.211373974548	2
3	16374	15.219877974548	1
3	16384	15.221098080162	2
3	16390	15.229602080162	1
3	16391	15.229602080162	2
3	16399	15.238106080162	1
3	16411	15.264478986848	2
3	16413	15.272982986848	1
3	16423	15.275424060887	2
3	16434	15.283928060887	1
3	16435	15.283928060887	2
3	16442	15.292432060887	1
3	16443	15.292432060887	2
3	16452	15.300936060887	1
3	16462	15.301685342539	2
3	16465	15.310189342539	1
3	16476	15.3158854682	2
3	16479	15.3243894682	1
3	16490	15.345657447512	2
3	16496	15.354161447512	1
3	16497	15.354161447512	2
3	16504	15.362665447512	1
3	16515	15.366296036474	2
3	16522	15.374800036474	1
3	16523	15.374800036474	2
3	16530	15.383304036474	1
3	16540	15.38391630028	2
3	16543	15.39242030028	1
3	16556	15.42114186717	2
3	16558	15.42964586717	1
3	16569	15.467665394412	2
3	16571	15.476169394412	1
3	16582	15.49139589768	2
3	16588	15.49989989768	1
3	16589	15.49989989768	2
3	16597	15.50840389768	1
3	16609	15.522973491593	2
3	16611	15.531477491593	1
3	16621	15.535187035036	2
3	16632	15.543691035036	1
3	16633	15.543691035036	2
3	16640	15.552195035036	1
3	16641	15.552195035036	2
3	16653	15.560699035036	1
3	16654	15.560699035036	2
3	16666	15.569203035036	1
3	16667	15.569203035036	2
3	16675	15.577707035036	1
3	16686	15.586892290518	2
3	16689	15.595396290518	1
3	16700	15.603433290461	2
3	16703	15.611937290461	1
3	16714	15.622366664431	2
3	16720	15.630870664431	1
3	16721	15.630870664431	2
3	16728	15.639374664431	1
3	16739	15.646019198606	2
3	16742	15.654523198606	1
3	16752	15.655570565834	2
3	16758	15.664074565834	1
3	16759	15.664074565834	2
3	16767	15.672578565834	1
3	16778	15.676756463732	2
3	16793	15.685260463732	1
3	16794	15.685260463732	2
3	16797	15.693764463732	1
3	16798	15.693764463732	2
3	16803	15.702268463732	1
3	16804	15.702268463732	2
3	16808	15.710772463732	1
3	16816	15.731345067869	2
3	16830	15.739849067869	1
3	16831	15.739849067869	2
3	16842	15.748353067869	1
3	16843	15.748353067869	2
3	16847	15.756857067869	1
3	16848	15.756857067869	2
3	16852	15.765361067869	1
3	16853	15.765361067869	2
3	16857	15.773865067869	1
3	16858	15.773865067869	2
3	16862	15.782369067869	1
3	16868	15.783264808076	2
3	16871	15.791768808076	1
3	16880	15.805648705131	2
3	16890	15.814152705131	1
3	16891	15.814152705131	2
3	16894	15.822656705131	1
3	16895	15.822656705131	2
3	16899	15.831160705131	1
3	16906	15.833076215436	2
3	16909	15.841580215436	1
3	16915	15.846040869973	2
3	16922	15.854544869973	1
3	16923	15.854544869973	2
3	16926	15.863048869973	1
3	16935	15.91449779671	2
3	16941	15.92300179671	1
3	16942	15.92300179671	2
3	16945	15.93150579671	1
3	16952	15.939984448207	2
3	16959	15.948488448207	1
3	16960	15.948488448207	2
3	16967	15.956992448207	1
3	16968	15.956992448207	2
3	16972	15.965496448207	1
3	16979	15.970069014515	2
3	16982	15.978573014515	1
3	16988	15.983649151328	2
3	16991	15.992153151328	1
3	16999	16.016990380827	2
3	17001	16.025494380827	1
3	17007	16.028637453625	2
3	17014	16.037141453625	1
3	17015	16.037141453625	2
3	17018	16.045645453625	1
3	17026	16.055759935022	2
3	17028	16.064263935022	1
3	17034	16.073352068143	2
3	17037	16.081856068143	1
3	17043	16.088284209077	2
3	17054	16.096788209077	1
3	17055	16.096788209077	2
3	17063	16.105292209077	1
3	17064	16.105292209077	2
3	17068	16.113796209077	1
3	17069	16.113796209077	2
3	17077	16.122300209077	1
3	17078	16.122300209077	2
3	17082	16.130804209077	1
3	17089	16.132374542561	2
3	17092	16.140878542561	1
3	17099	16.158129479976	2
3	17101	16.166633479976	1
3	17108	16.198910932372	2
3	17111	16.207414932372	1
3	17117	16.216797337903	2
3	17120	16.225301337903	1
3	17127	16.27866475604	2
3	17129	16.28716875604	1
3	17135	16.29011172912	2
3	17150	16.29861572912	1
3	17151	16.29861572912	2
3	17155	16.30711972912	1
3	17156	16.30711972912	2
3	17160	16.31562372912	1
3	17161	16.31562372912	2
3	17169	16.32412772912	1
3	17170	16.32412772912	2
3	17174	16.33263172912	1
3	17181	16.34070485929	2
3	17184	16.34920885929	1
3	17191	16.379577636725	2
3	17201	16.388081636725	1
3	17202	16.388081636725	2
3	17205	16.396585636725	1
3	17206	16.396585636725	2
3	17211	16.405089636725	1
3	17218	16.410274186427	2
3	17225	16.418778186427	1
3	17226	16.418778186427	2
3	17233	16.427282186427	1
3	17234	16.427282186427	2
3	17238	16.435786186427	1
3	17246	16.47294703395	2
3	17252	16.48145103395	1
3	17253	16.48145103395	2
3	17256	16.48995503395	1
3	17263	16.492240667303	2
3	17271	16.500744667303	1
3	17272	16.500744667303	2
3	17275	16.509248667303	1
3	17282	16.515930466867	2
3	17285	16.524434466867	1
3	17291	16.524932531916	2
3	17301	16.533436531916	1
3	17302	16.533436531916	2
3	17310	16.541940531916	1
3	17311	16.541940531916	2
3	17319	16.550444531916	1
3	17320	16.550444531916	2
3	17324	16.558948531916	1
3	17325	16.558948531916	2
3	17333	16.567452531916	1
3	17334	16.567452531916	2
3	17338	16.575956531916	1
3	17346	16.59503935213	2
3	17349	16.60354335213	1
3	17355	16.609252821322	2
3	17358	16.617756821322	1
3	17364	16.627487595274	2
3	17375	16.635991595274	1
3	17376	16.635991595274	2
3	17383	16.644495595274	1
3	17384	16.644495595274	2
3	17388	16.652999595274	1
3	17389	16.652999595274	2
3	17401	16.661503595274	1
3	17402	16.661503595274	2
3	17414	16.670007595274	1
3	17415	16.670007595274	2
3	17419	16.678511595274	1
3	17420	16.678511595274	2
3	17424	16.687015595274	1
3	17425	16.687015595274	2
3	17433	16.695519595274	1
3	17434	16.695519595274	2
3	17451	16.704023595274	1
3	17452	16.704023595274	2
3	17460	16.712527595274	1
3	17461	16.712527595274	2
3	17465	16.721031595274	1
3	17466	16.721031595274	2
3	17474	16.729535595274	1
3	17475	16.729535595274	2
3	17479	16.738039595274	1
3	17480	16.738039595274	2
3	17488	16.746543595274	1
3	17489	16.746543595274	2
3	17497	16.755047595274	1
3	17498	16.755047595274	2
3	17502	16.763551595274	1
3	17509	16.770979525943	2
3	17516	16.779483525943	1
3	17517	16.779483525943	2
3	17524	16.787987525943	1
3	17525	16.787987525943	2
3	17533	16.796491525943	1
3	17534	16.796491525943	2
3	17539	16.804995525943	1
3	17546	16.810131126008	2
3	17549	16.818635126008	1
3	17556	16.847853721011	2
3	17562	16.856357721011	1
3	17563	16.856357721011	2
3	17566	16.864861721011	1
3	17573	16.870679093127	2
3	17576	16.879183093127	1
3	17582	16.883623769676	2
3	17585	16.892127769676	1
3	17591	16.894040574736	2
3	17595	16.902544574736	1
3	17601	16.91193402333	2
3	17604	16.92043802333	1
3	17611	16.946529824366	2
3	17621	16.955033824366	1
3	17622	16.955033824366	2
3	17625	16.963537824366	1
3	17626	16.963537824366	2
3	17638	16.972041824366	1
3	17639	16.972041824366	2
3	17651	16.980545824366	1
3	17652	16.980545824366	2
3	17660	16.989049824366	1
3	17661	16.989049824366	2
3	17673	16.997553824366	1
3	17674	16.997553824366	2
3	17679	17.006057824366	1
3	17680	17.006057824366	2
3	17684	17.014561824366	1
3	17685	17.014561824366	2
3	17693	17.023065824366	1
3	17694	17.023065824366	2
3	17702	17.031569824366	1
3	17703	17.031569824366	2
3	17711	17.040073824366	1
3	17712	17.040073824366	2
3	17720	17.048577824366	1
3	17721	17.048577824366	2
3	17725	17.057081824366	1
3	17726	17.057081824366	2
3	17738	17.065585824366	1
3	17739	17.065585824366	2
3	17755	17.074089824366	1
3	17756	17.074089824366	2
3	17764	17.082593824366	1
3	17765	17.082593824366	2
3	17773	17.091097824366	1
3	17774	17.091097824366	2
3	17778	17.099601824366	1
3	17779	17.099601824366	2
3	17784	17.108105824366	1
3	17785	17.108105824366	2
3	17789	17.116609824366	1
3	17790	17.116609824366	2
3	17798	17.125113824366	1
3	17799	17.125113824366	2
3	17803	17.133617824366	1
3	17811	17.165344743777	2
3	17813	17.173848743777	1
3	17819	17.176959727879	2
3	17822	17.185463727879	1
3	17828	17.188491961638	2
3	17831	17.196995961638	1
3	17839	17.239195164456	2
3	17841	17.247699164456	1
3	17848	17.265389681026	2
3	17850	17.273893681026	1
3	17856	17.282771290777	2
3	17863	17.291275290777	1
3	17864	17.291275290777	2
3	17875	17.299779290777	1
3	17876	17.299779290777	2
3	17885	17.308283290777	1
3	17886	17.308283290777	2
3	17890	17.316787290777	1
3	17891	17.316787290777	2
3	17895	17.325291290777	1
3	17903	17.359168993052	2
3	17905	17.367672993052	1
3	17912	17.388354616351	2
3	17922	17.396858616351	1
3	17923	17.396858616351	2
3	17927	17.405362616351	1
3	17928	17.405362616351	2
3	17932	17.413866616351	1
3	17939	17.417640931295	2
3	17942	17.426144931295	1
3	17948	17.426885680229	2
3	17954	17.435389680229	1
3	17955	17.435389680229	2
3	17963	17.443893680229	1
3	17964	17.443893680229	2
3	17968	17.452397680229	1
3	17975	17.455405209658	2
3	17990	17.463909209658	1
3	17991	17.463909209658	2
3	18006	17.472413209658	1
3	18007	17.472413209658	2
3	18011	17.480917209658	1
3	18012	17.480917209658	2
3	18032	17.489421209658	1
3	18033	17.489421209658	2
3	18045	17.497925209658	1
3	18046	17.497925209658	2
3	18055	17.506429209658	1
3	18056	17.506429209658	2
3	18060	17.514933209658	1
3	18061	17.514933209658	2
3	18069	17.523437209658	1
3	18070	17.523437209658	2
3	18074	17.531941209658	1
3	18075	17.531941209658	2
3	18079	17.540445209658	1
3	18080	17.540445209658	2
3	18084	17.548949209658	1
3	18085	17.548949209658	2
3	18089	17.557453209658	1
3	18090	17.557453209658	2
3	18094	17.565957209658	1
3	18095	17.565957209658	2
3	18099	17.574461209658	1
3	18100	17.574461209658	2
3	18104	17.582965209658	1
3	18111	17.589664708127	2
3	18114	17.598168708127	1
3	18120	17.59882697533	2
3	18123	17.60733097533	1
3	18131	17.633459336445	2
3	18141	17.641963336445	1
3	18142	17.641963336445	2
3	18149	17.650467336445	1
3	18150	17.650467336445	2
3	18158	17.658971336445	1
3	18159	17.658971336445	2
3	18167	17.667475336445	1
3	18168	17.667475336445	2
3	18176	17.675979336445	1
3	18177	17.675979336445	2
3	18185	17.684483336445	1
3	18186	17.684483336445	2
3	18190	17.692987336445	1
3	18191	17.692987336445	2
3	18196	17.701491336445	1
3	18204	17.712646049883	2
3	18206	17.721150049883	1
3	18213	17.738575412408	2
3	18215	17.747079412408	1
3	18221	17.753102451577	2
3	18228	17.761606451577	1
3	18229	17.761606451577	2
3	18240	17.770110451577	1
3	18241	17.770110451577	2
3	18245	17.778614451577	1
3	18246	17.778614451577	2
3	18254	17.787118451577	1
3	18255	17.787118451577	2
3	18267	17.795622451577	1
3	18268	17.795622451577	2
3	18273	17.804126451577	1
3	18274	17.804126451577	2
3	18278	17.812630451577	1
3	18285	17.817524717539	2
3	18288	17.826028717539	1
3	18294	17.832339997053	2
3	18297	17.840843997053	1
3	18303	17.843802759441	2
3	18306	17.852306759441	1
3	18313	17.862674183292	2
3	18315	17.871178183292	1
3	18322	17.884342977464	2
3	18328	17.892846977464	1
3	18329	17.892846977464	2
3	18333	17.901350977464	1
3	18341	17.917832764971	2
3	18343	17.926336764971	1
3	18350	17.947616035484	2
3	18356	17.956120035484	1
3	18357	17.956120035484	2
3	18364	17.964624035484	1
3	18365	17.964624035484	2
3	18373	17.973128035484	1
3	18374	17.973128035484	2
3	18382	17.981632035484	1
3	18383	17.981632035484	2
3	18387	17.990136035484	1
3	18396	18.014182767162	2
3	18402	18.022686767162	1
3	18403	18.022686767162	2
3	18406	18.031190767162	1
3	18414	18.067756967213	2
3	18416	18.076260967213	1
3	18423	18.095646499436	2
3	18430	18.104150499436	1
3	18431	18.104150499436	2
3	18434	18.112654499436	1
3	18442	18.123421374774	2
3	18444	18.131925374774	1
3	18450	18.141007867353	2
3	18453	18.149511867353	1
3	18459	18.154602398472	2
3	18470	18.163106398472	1
3	18471	18.163106398472	2
3	18474	18.171610398472	1
3	18475	18.171610398472	2
3	18483	18.180114398472	1
3	18484	18.180114398472	2
3	18488	18.188618398472	1
3	18495	18.197427728398	2
3	18503	18.205931728398	1
3	18504	18.205931728398	2
3	18511	18.214435728398	1
3	18512	18.214435728398	2
3	18520	18.222939728398	1
3	18521	18.222939728398	2
3	18525	18.231443728398	1
3	18533	18.244401254609	2
3	18539	18.252905254609	1
3	18540	18.252905254609	2
3	18547	18.261409254609	1
3	18548	18.261409254609	2
3	18560	18.269913254609	1
3	18561	18.269913254609	2
3	18565	18.278417254609	1
3	18566	18.278417254609	2
3	18574	18.286921254609	1
3	18575	18.286921254609	2
3	18579	18.295425254609	1
3	18587	18.303534344759	2
3	18602	18.312038344759	1
3	18603	18.312038344759	2
3	18606	18.320542344759	1
3	18607	18.320542344759	2
3	18611	18.329046344759	1
3	18612	18.329046344759	2
3	18616	18.337550344759	1
3	18623	18.346481120491	2
3	18626	18.354985120491	1
3	18632	18.359682559216	2
3	18635	18.368186559216	1
3	18642	18.399640389274	2
3	18645	18.408144389274	1
3	18651	18.408738872919	2
3	18653	18.417242872919	1
3	18661	18.428176885407	2
3	18667	18.436680885407	1
3	18668	18.436680885407	2
3	18679	18.445184885407	1
3	18680	18.445184885407	2
3	18684	18.453688885407	1
3	18685	18.453688885407	2
3	18693	18.462192885407	1
3	18694	18.462192885407	2
3	18702	18.470696885407	1
3	18703	18.470696885407	2
3	18707	18.479200885407	1
3	18715	18.490639631311	2
3	18717	18.499143631311	1
3	18725	18.539729745173	2
3	18747	18.548233745173	1
3	18748	18.548233745173	2
3	18755	18.556737745173	1
[...]
20	16548	15.392421958048	1260
20	16563	15.429647526232	1261
20	16576	15.476171055091	1262
20	16594	15.499901559184	1263
20	16602	15.50840555948	1264
20	16616	15.531479154195	1265
20	16638	15.543692698063	1266
20	16646	15.552196698358	1267
20	16659	15.560700698654	1268
20	16672	15.56920469895	1269
20	16680	15.577708699246	1270
20	16694	15.595397955343	1271
20	16708	15.611938955862	1272
20	16726	15.630872330491	1273
20	16733	15.639376330787	1274
20	16747	15.654524865489	1275
20	16764	15.664076233049	1276
20	16772	15.672580233345	1277
21	87	0.1	400000
21	169	0.2	480000
21	240	0.3	480000
21	332	0.4	560000
21	476	0.5	880000
21	593	0.6	640000
21	715	0.7	720000
21	855	0.8	880000
21	961	0.9	640000
21	1104	1	880000
21	1265	1.1	960000
21	1392	1.2	880000
21	1477	1.3	480000
21	1556	1.4	480000
21	1664	1.5	640000
21	1818	1.6	960000
21	1905	1.7	560000
21	1937	1.8	160000
21	2046	1.9	640000
21	2129	2	560000
21	2250	2.1	640000
21	2391	2.2	960000
21	2509	2.3	720000
21	2660	2.4	800000
21	2766	2.5	720000
21	2881	2.6	720000
21	2968	2.7	560000
21	3098	2.8	720000
21	3251	2.9	960000
21	3370	3	720000
21	3458	3.1	560000
21	3544	3.2	560000
21	3598	3.3	320000
21	3690	3.4	480000
21	3786	3.5	640000
21	3887	3.6	640000
21	3969	3.7	400000
21	4126	3.8	960000
21	4278	3.9	880000
21	4439	4	960000
21	4584	4.1	960000
21	4729	4.2	960000
21	4817	4.3	560000
21	4927	4.4	640000
21	4988	4.5	400000
21	5075	4.6	480000
21	5206	4.7	800000
21	5298	4.8	560000
21	5459	4.9	960000
21	5570	5	720000
21	5674	5.1	640000
21	5784	5.2	640000
21	5854	5.3	480000
21	5903	5.4	240000
21	6004	5.5	640000
21	6142	5.6	880000
21	6209	5.7	400000
21	6258	5.8	240000
21	6358	5.9	640000
21	6450	6	560000
21	6603	6.1	960000
21	6725	6.2	720000
21	6869	6.3	880000
21	7017	6.4	880000
21	7119	6.5	640000
21	7240	6.6	720000
21	7350	6.7	720000
21	7416	6.8	400000
21	7465	6.9	240000
21	7579	7	720000
21	7696	7.1	720000
21	7789	7.2	560000
21	7846	7.3	320000
21	7993	7.4	960000
21	8104	7.5	640000
21	8152	7.6	320000
21	8218	7.7	320000
21	8340	7.8	800000
21	8407	7.9	400000
21	8519	8	640000
21	8637	8.1	800000
21	8773	8.2	800000
21	8908	8.3	800000
21	9036	8.4	800000
21	9203	8.5	880000
21	9356	8.6	960000
21	9480	8.7	880000
21	9546	8.8	400000
21	9707	8.9	960000
21	9808	9	640000
21	9917	9.1	640000
21	10014	9.2	640000
21	10054	9.3	240000
21	10171	9.4	720000
21	10284	9.5	560000
21	10413	9.6	880000
21	10557	9.7	880000
21	10630	9.8	480000
21	10770	9.9	800000
21	10905	10	880000
21	11019	10.1	640000
21	11129	10.2	720000
21	11229	10.3	560000
21	11335	10.4	640000
21	11426	10.5	560000
21	11548	10.6	800000
21	11646	10.7	560000
21	11763	10.8	720000
21	11876	10.9	640000
21	11969	11	640000
21	12087	11.1	720000
21	12204	11.2	640000
21	12348	11.3	880000
21	12479	11.4	800000
21	12610	11.5	800000
21	12734	11.6	800000
21	12761	11.7	160000
21	12848	11.8	560000
21	12932	11.9	480000
21	13063	12	800000
21	13193	12.1	800000
21	13332	12.2	800000
21	13430	12.3	640000
21	13495	12.4	400000
21	13586	12.5	480000
21	13726	12.6	960000
21	13844	12.7	720000
21	13998	12.8	880000
21	14107	12.9	720000
21	14186	13	480000
21	14282	13.1	560000
21	14370	13.2	560000
21	14462	13.3	560000
21	14557	13.4	480000
21	14685	13.5	880000
21	14738	13.6	320000
21	14790	13.7	240000
21	14883	13.8	640000
21	15030	13.9	800000
21	15163	14	880000
21	15293	14.1	800000
21	15381	14.2	560000
21	15473	14.3	560000
21	15565	14.4	560000
21	15639	14.5	400000
21	15749	14.6	720000
21	15853	14.7	640000
21	15985	14.8	800000
21	16017	14.9	160000
21	16083	15	400000
21	16251	15.1	960000
21	16365	15.2	800000
21	16457	15.3	560000
21	16563	15.4	640000
21	16602	15.5	240000
21	16708	15.6	640000
21	50982	15.7	480000
21	50982	15.8	0
21	50982	15.9	0
21	50982	16	0
21	50982	16.1	0
21	50982	16.2	0
21	50982	16.3	0
21	50982	16.4	0
21	50982	16.5	0
21	50982	16.6	0
21	50982	16.7	0
21	50982	16.8	0
21	50982	16.9	0
21	50982	17	0
21	50982	17.1	0
21	50982	17.2	0
21	50982	17.3	0
21	50982	17.4	0
21	50982	17.5	0
21	50982	17.6	0
21	50982	17.7	0
21	50982	17.8	0
21	50982	17.9	0
21	50982	18	0
21	50982	18.1	0
21	50982	18.2	0
21	50982	18.3	0
21	50982	18.4	0
21	50982	18.5	0
21	50982	18.6	0
21	50982	18.7	0
21	50982	18.8	0
21	50982	18.9	0
21	50982	19	0
21	50982	19.1	0
21	50982	19.2	0
21	50982	19.3	0
21	50982	19.4	0
21	50982	19.5	0
21	50982	19.6	0
21	50982	19.7	0
21	50982	19.8	0
21	50982	19.9	0
21	50982	20	0
21	50982	20.1	0
21	50982	20.2	0
21	50982	20.3	0
21	50982	20.4	0
21	50982	20.5	0
21	50982	20.6	0
21	50982	20.7	0
21	50982	20.8	0
21	50982	20.9	0
21	50982	21	0
21	50982	21.1	0
21	50982	21.2	0
21	50982	21.3	0
21	50982	21.4	0
21	50982	21.5	0
21	50982	21.6	0
21	50982	21.7	0
21	50982	21.8	0
21	50982	21.9	0
21	50982	22	0
21	50982	22.1	0
21	50982	22.2	0
21	50982	22.3	0
21	50982	22.4	0
21	50982	22.5	0
21	50982	22.6	0
21	50982	22.7	0
21	50982	22.8	0
21	50982	22.9	0
21	50982	23	0
21	50982	23.1	0
21	50982	23.2	0
21	50982	23.3	0
21	50982	23.4	0
21	50982	23.5	0
21	50982	23.6	0
21	50982	23.7	0
21	50982	23.8	0
21	50982	23.9	0
21	50982	24	0
21	50982	24.1	0
21	50982	24.2	0
21	50982	24.3	0
21	50982	24.4	0
21	50982	24.5	0
21	50982	24.6	0
21	50982	24.7	0
21	50982	24.8	0
21	50982	24.9	0
21	50982	25	0
21	50982	25.1	0
21	50982	25.2	0
21	50982	25.3	0
21	50982	25.4	0
21	50982	25.5	0
21	50982	25.6	0
21	50982	25.7	0
21	50982	25.8	0
21	50982	25.9	0
21	50982	26	0
21	50982	26.1	0
21	50982	26.2	0
21	50982	26.3	0
21	50982	26.4	0
21	50982	26.5	0
21	50982	26.6	0
21	50982	26.7	0
21	50982	26.8	0
21	50982	26.9	0
21	50982	27	0
21	50982	27.1	0
21	50982	27.2	0
21	50982	27.3	0
21	50982	27.4	0
21	50982	27.5	0
21	50982	27.6	0
21	50982	27.7	0
21	50982	27.8	0
21	50982	27.9	0
21	50982	28	0
21	50982	28.1	0
21	50982	28.2	0
21	50982	28.3	0
21	50982	28.4	0
21	50982	28.5	0
21	50982	28.6	0
21	50982	28.7	0
21	50982	28.8	0
21	50982	28.9	0
21	50982	29	0
21	50982	29.1	0
21	50982	29.2	0
21	50982	29.3	0
21	50982	29.4	0
21	50982	29.5	0
21	50982	29.6	0
21	50982	29.7	0
21	50982	29.8	0
21	50982	29.9	0
21	50982	30	0
21	50982	30.1	0
21	50982	30.2	0
21	50982	30.3	0
21	50982	30.4	0
21	50982	30.5	0
21	50982	30.6	0
21	50982	30.7	0
21	50982	30.8	0
21	50982	30.9	0
21	50982	31	0
21	50982	31.1	0
21	50982	31.2	0
21	50982	31.3	0
21	50982	31.4	0
21	50982	31.5	0
21	50982	31.6	0
21	50982	31.7	0
21	50982	31.8	0
21	50982	31.9	0
21	50982	32	0
21	50982	32.1	0
21	50982	32.2	0
21	50982	32.3	0
21	50982	32.4	0
21	50982	32.5	0
21	50982	32.6	0
21	50982	32.7	0
21	50982	32.8	0
21	50982	32.9	0
21	50982	33	0
21	50982	33.1	0
21	50982	33.2	0
21	50982	33.3	0
21	50982	33.4	0
21	50982	33.5	0
21	50982	33.6	0
21	50982	33.7	0
21	50982	33.8	0
21	50982	33.9	0
21	50982	34	0
21	50982	34.1	0
21	50982	34.2	0
21	50982	34.3	0
21	50982	34.4	0
21	50982	34.5	0
21	50982	34.6	0
21	50982	34.7	0
21	50982	34.8	0
21	50982	34.9	0
21	50982	35	0
21	50982	35.1	0
21	50982	35.2	0
21	50982	35.3	0
21	50982	35.4	0
21	50982	35.5	0
21	50982	35.6	0
21	50982	35.7	0
21	50982	35.8	0
21	50982	35.9	0
21	50982	36	0
21	50982	36.1	0
21	50982	36.2	0
21	50982	36.3	0
21	50982	36.4	0
21	50982	36.5	0
21	50982	36.6	0
21	50982	36.7	0
21	50982	36.8	0
21	50982	36.9	0
21	50982	37	0
21	50982	37.1	0
21	50982	37.2	0
21	50982	37.3	0
21	50982	37.4	0
21	50982	37.5	0
21	50982	37.6	0
21	50982	37.7	0
21	50982	37.8	0
21	50982	37.9	0
21	50982	38	0
21	50982	38.1	0
21	50982	38.2	0
21	50982	38.3	0
21	50982	38.4	0
21	50982	38.5	0
21	50982	38.6	0
21	50982	38.7	0
21	50982	38.8	0
21	50982	38.9	0
21	50982	39	0
21	50982	39.1	0
21	50982	39.2	0
21	50982	39.3	0
21	50982	39.4	0
21	50982	39.5	0
21	50982	39.6	0
21	50982	39.7	0
21	50982	39.8	0
21	50982	39.9	0
21	50982	40	0
21	50982	40.1	0
21	50982	40.2	0
21	50982	40.3	0
21	50982	40.4	0
21	50982	40.5	0
21	50982	40.6	0
21	50982	40.7	0
21	50982	40.8	0
21	50982	40.9	0
21	50982	41	0
21	50982	41.1	0
21	50982	41.2	0
21	50982	41.3	0
21	50982	41.4	0
21	50982	41.5	0
21	50982	41.6	0
21	50982	41.7	0
21	50982	41.8	0
21	50982	41.9	0
21	50982	42	0
21	50982	42.1	0
21	50982	42.2	0
21	50982	42.3	0
21	50982	42.4	0
21	50982	42.5	0
21	50982	42.6	0
21	50982	42.7	0
21	50982	42.8	0
21	50982	42.9	0
21	50982	43	0
21	50982	43.1	0
21	50982	43.2	0
21	50982	43.3	0
21	50982	43.4	0
21	50982	43.5	0
21	50982	43.6	0
21	50982	43.7	0
21	50982	43.8	0
21	50982	43.9	0
21	50982	44	0
21	50982	44.1	0
21	50982	44.2	0
21	50982	44.3	0
21	50982	44.4	0
21	50982	44.5	0
21	50982	44.6	0
21	50982	44.7	0
21	50982	44.8	0
21	50982	44.9	0
21	50982	45	0
21	50982	45.1	0
21	50982	45.2	0
21	50982	45.3	0
21	50982	45.4	0
21	50982	45.5	0
21	50982	45.6	0
21	50982	45.7	0
21	50982	45.8	0
21	50982	45.9	0
21	50982	46	0
21	50982	46.1	0
21	50982	46.2	0
21	50982	46.3	0
21	50982	46.4	0
21	50982	46.5	0
21	50982	46.6	0
21	50982	46.7	0
21	50982	46.8	0
21	50982	46.9	0
21	50982	47	0
21	50982	47.1	0
21	50982	47.2	0
21	50982	47.3	0
21	50982	47.4	0
21	50982	47.5	0
21	50982	47.6	0
21	50982	47.7	0
21	50982	47.8	0
21	50982	47.9	0
21	50982	48	0
21	50982	48.1	0
21	50982	48.2	0
21	50982	48.3	0
21	50982	48.4	0
21	50982	48.5	0
21	50982	48.6	0
21	50982	48.7	0
21	50982	48.8	0
21	50982	48.9	0
21	50982	49	0
21	50982	49.1	0
21	50982	49.2	0
21	50982	49.3	0
21	50982	49.4	0
21	50982	49.5	0
21	50982	49.6	0
21	50982	49.7	0
21	50982	49.8	0
21	50982	49.9	0
21	50982	50	0
21	50982	50.1	0
21	50982	50.2	0
21	50982	50.3	0
21	50982	50.4	0
21	50982	50.5	0
21	50982	50.6	0
21	50982	50.7	0
21	50982	50.8	0
21	50982	50.9	0
21	50982	51	0
21	50982	51.1	0
21	50982	51.2	0
21	50982	51.3	0
21	50982	51.4	0
21	50982	51.5	0
21	50982	51.6	0
21	50982	51.7	0
21	50982	51.8	0
21	50982	51.9	0
21	50982	52	0
21	50982	52.1	0
21	50982	52.2	0
21	50982	52.3	0
21	50982	52.4	0
21	50982	52.5	0
21	50982	52.6	0
21	50982	52.7	0
21	50982	52.8	0
21	50982	52.9	0
21	50982	53	0
21	50982	53.1	0
21	50982	53.2	0
21	50982	53.3	0
21	50982	53.4	0
21	50982	53.5	0
21	50982	53.6	0
21	50982	53.7	0
21	50982	53.8	0
21	50982	53.9	0
21	50982	54	0
21	50982	54.1	0
21	50982	54.2	0
21	50982	54.3	0
21	50982	54.4	0
21	50982	54.5	0
21	50982	54.6	0
21	50982	54.7	0
21	50982	54.8	0
21	50982	54.9	0
21	50982	55	0
21	50982	55.1	0
21	50982	55.2	0
21	50982	55.3	0
21	50982	55.4	0
21	50982	55.5	0
21	50982	55.6	0
21	50982	55.7	0
21	50982	55.8	0
21	50982	55.9	0
21	50982	56	0
21	50982	56.1	0
21	50982	56.2	0
21	50982	56.3	0
21	50982	56.4	0
21	50982	56.5	0
21	50982	56.6	0
21	50982	56.7	0
21	50982	56.8	0
21	50982	56.9	0
21	50982	57	0
21	50982	57.1	0
21	50982	57.2	0
21	50982	57.3	0
21	50982	57.4	0
21	50982	57.5	0
21	50982	57.6	0
21	50982	57.7	0
21	50982	57.8	0
21	50982	57.9	0
21	50982	58	0
21	50982	58.1	0
21	50982	58.2	0
21	50982	58.3	0
21	50982	58.4	0
21	50982	58.5	0
21	50982	58.6	0
21	50982	58.7	0
21	50982	58.8	0
21	50982	58.9	0
21	50982	59	0
21	50982	59.1	0
21	50982	59.2	0
21	50982	59.3	0
21	50982	59.4	0
21	50982	59.5	0
21	50982	59.6	0
21	50982	59.7	0
21	50982	59.8	0
21	50982	59.9	0
21	50982	60	0
22	50982	0.1	0
22	50982	0.2	0
22	50982	0.3	0
22	50982	0.4	0
22	50982	0.5	0
22	50982	0.6	0
22	50982	0.7	0
22	50982	0.8	0
22	50982	0.9	0
22	50982	1	0
22	50982	1.1	0
22	50982	1.2	0
22	50982	1.3	0
22	50982	1.4	0
22	50982	1.5	0
22	50982	1.6	0
22	50982	1.7	0
22	50982	1.8	0
22	50982	1.9	0
22	50982	2	0
22	50982	2.1	0
22	50982	2.2	0
22	50982	2.3	0
22	50982	2.4	0
22	50982	2.5	0
22	50982	2.6	0
22	50982	2.7	0
22	50982	2.8	0
22	50982	2.9	0
22	50982	3	0
22	50982	3.1	0
22	50982	3.2	0
22	50982	3.3	0
22	50982	3.4	0
22	50982	3.5	0
22	50982	3.6	0
22	50982	3.7	0
22	50982	3.8	0
22	50982	3.9	0
22	50982	4	0
22	50982	4.1	0
22	50982	4.2	0
22	50982	4.3	0
22	50982	4.4	0
22	50982	4.5	0
22	50982	4.6	0
22	50982	4.7	0
22	50982	4.8	0
22	50982	4.9	0
22	50982	5	0
22	50982	5.1	0
22	50982	5.2	0
22	50982	5.3	0
22	50982	5.4	0
22	50982	5.5	0
22	50982	5.6	0
22	50982	5.7	0
22	50982	5.8	0
22	50982	5.9	0
22	50982	6	0
22	50982	6.1	0
22	50982	6.2	0
22	50982	6.3	0
22	50982	6.4	0
22	50982	6.5	0
22	50982	6.6	0
22	50982	6.7	0
22	50982	6.8	0
22	50982	6.9	0
22	50982	7	0
22	50982	7.1	0
22	50982	7.2	0
22	50982	7.3	0
22	50982	7.4	0
22	50982	7.5	0
22	50982	7.6	0
22	50982	7.7	0
22	50982	7.8	0
22	50982	7.9	0
22	50982	8	0
22	50982	8.1	0
22	50982	8.2	0
22	50982	8.3	0
22	50982	8.4	0
22	50982	8.5	0
22	50982	8.6	0
22	50982	8.7	0
22	50982	8.8	0
22	50982	8.9	0
22	50982	9	0
22	50982	9.1	0
22	50982	9.2	0
22	50982	9.3	0
22	50982	9.4	0
22	50982	9.5	0
22	50982	9.6	0
22	50982	9.7	0
22	50982	9.8	0
22	50982	9.9	0
22	50982	10	0
22	50982	10.1	0
22	50982	10.2	0
22	50982	10.3	0
22	50982	10.4	0
22	50982	10.5	0
22	50982	10.6	0
22	50982	10.7	0
22	50982	10.8	0
22	50982	10.9	0
22	50982	11	0
22	50982	11.1	0
22	50982	11.2	0
22	50982	11.3	0
22	50982	11.4	0
22	50982	11.5	0
22	50982	11.6	0
22	50982	11.7	0
22	50982	11.8	0
22	50982	11.9	0
22	50982	12	0
22	50982	12.1	0
22	50982	12.2	0
22	50982	12.3	0
22	50982	12.4	0
22	50982	12.5	0
22	50982	12.6	0
22	50982	12.7	0
22	50982	12.8	0
22	50982	12.9	0
22	50982	13	0
22	50982	13.1	0
22	50982	13.2	0
22	50982	13.3	0
22	50982	13.4	0
22	50982	13.5	0
22	50982	13.6	0
22	50982	13.7	0
22	50982	13.8	0
22	50982	13.9	0
22	50982	14	0
22	50982	14.1	0
22	50982	14.2	0
22	50982	14.3	0
22	50982	14.4	0
22	50982	14.5	0
22	50982	14.6	0
22	50982	14.7	0
22	50982	14.8	0
22	50982	14.9	0
22	50982	15	0
22	50982	15.1	0
22	50982	15.2	0
22	50982	15.3	0
22	50982	15.4	0
22	50982	15.5	0
22	50982	15.6	0
22	50982	15.7	0
22	50982	15.8	0
22	50982	15.9	0
22	50982	16	0
22	50982	16.1	0
22	50982	16.2	0
22	50982	16.3	0
22	50982	16.4	0
22	50982	16.5	0
22	50982	16.6	0
22	50982	16.7	0
22	50982	16.8	0
22	50982	16.9	0
22	50982	17	0
22	50982	17.1	0
22	50982	17.2	0
22	50982	17.3	0
22	50982	17.4	0
22	50982	17.5	0
22	50982	17.6	0
22	50982	17.7	0
22	50982	17.8	0
22	50982	17.9	0
22	50982	18	0
22	50982	18.1	0
22	50982	18.2	0
22	50982	18.3	0
22	50982	18.4	0
22	50982	18.5	0
22	50982	18.6	0
22	50982	18.7	0
22	50982	18.8	0
22	50982	18.9	0
22	50982	19	0
22	50982	19.1	0
22	50982	19.2	0
22	50982	19.3	0
22	50982	19.4	0
22	50982	19.5	0
22	50982	19.6	0
22	50982	19.7	0
22	50982	19.8	0
22	50982	19.9	0
22	50982	20	0
22	50982	20.1	0
22	50982	20.2	0
22	50982	20.3	0
22	50982	20.4	0
22	50982	20.5	0
22	50982	20.6	0
22	50982	20.7	0
22	50982	20.8	0
22	50982	20.9	0
22	50982	21	0
22	50982	21.1	0
22	50982	21.2	0
22	50982	21.3	0
22	50982	21.4	0
22	50982	21.5	0
22	50982	21.6	0
22	50982	21.7	0
22	50982	21.8	0
22	50982	21.9	0
22	50982	22	0
22	50982	22.1	0
22	50982	22.2	0
22	50982	22.3	0
22	50982	22.4	0
22	50982	22.5	0
22	50982	22.6	0
22	50982	22.7	0
22	50982	22.8	0
22	50982	22.9	0
22	50982	23	0
22	50982	23.1	0
22	50982	23.2	0
22	50982	23.3	0
22	50982	23.4	0
22	50982	23.5	0
22	50982	23.6	0
22	50982	23.7	0
22	50982	23.8	0
22	50982	23.9	0
22	50982	24	0
22	50982	24.1	0
22	50982	24.2	0
22	50982	24.3	0
22	50982	24.4	0
22	50982	24.5	0
22	50982	24.6	0
22	50982	24.7	0
22	50982	24.8	0
22	50982	24.9	0
22	50982	25	0
22	50982	25.1	0
22	50982	25.2	0
22	50982	25.3	0
22	50982	25.4	0
22	50982	25.5	0
22	50982	25.6	0
22	50982	25.7	0
22	50982	25.8	0
22	50982	25.9	0
22	50982	26	0
22	50982	26.1	0
22	50982	26.2	0
22	50982	26.3	0
22	50982	26.4	0
22	50982	26.5	0
22	50982	26.6	0
22	50982	26.7	0
22	50982	26.8	0
22	50982	26.9	0
22	50982	27	0
22	50982	27.1	0
22	50982	27.2	0
22	50982	27.3	0
22	50982	27.4	0
22	50982	27.5	0
22	50982	27.6	0
22	50982	27.7	0
22	50982	27.8	0
22	50982	27.9	0
22	50982	28	0
22	50982	28.1	0
22	50982	28.2	0
22	50982	28.3	0
22	50982	28.4	0
22	50982	28.5	0
22	50982	28.6	0
22	50982	28.7	0
22	50982	28.8	0
22	50982	28.9	0
22	50982	29	0
22	50982	29.1	0
22	50982	29.2	0
22	50982	29.3	0
22	50982	29.4	0
22	50982	29.5	0
22	50982	29.6	0
22	50982	29.7	0
22	50982	29.8	0
22	50982	29.9	0
22	50982	30	0
22	50982	30.1	0
22	50982	30.2	0
22	50982	30.3	0
22	50982	30.4	0
22	50982	30.5	0
22	50982	30.6	0
22	50982	30.7	0
22	50982	30.8	0
22	50982	30.9	0
22	50982	31	0
22	50982	31.1	0
22	50982	31.2	0
22	50982	31.3	0
22	50982	31.4	0
22	50982	31.5	0
22	50982	31.6	0
22	50982	31.7	0
22	50982	31.8	0
22	50982	31.9	0
22	50982	32	0
22	50982	32.1	0
22	50982	32.2	0
22	50982	32.3	0
22	50982	32.4	0
22	50982	32.5	0
22	50982	32.6	0
22	50982	32.7	0
22	50982	32.8	0
22	50982	32.9	0
22	50982	33	0
22	50982	33.1	0
22	50982	33.2	0
22	50982	33.3	0
22	50982	33.4	0
22	50982	33.5	0
22	50982	33.6	0
22	50982	33.7	0
22	50982	33.8	0
22	50982	33.9	0
22	50982	34	0
22	50982	34.1	0
22	50982	34.2	0
22	50982	34.3	0
22	50982	34.4	0
22	50982	34.5	0
22	50982	34.6	0
22	50982	34.7	0
22	50982	34.8	0
22	50982	34.9	0
22	50982	35	0
22	50982	35.1	0
22	50982	35.2	0
22	50982	35.3	0
22	50982	35.4	0
22	50982	35.5	0
22	50982	35.6	0
22	50982	35.7	0
22	50982	35.8	0
22	50982	35.9	0
22	50982	36	0
22	50982	36.1	0
22	50982	36.2	0
22	50982	36.3	0
22	50982	36.4	0
22	50982	36.5	0
22	50982	36.6	0
22	50982	36.7	0
22	50982	36.8	0
22	50982	36.9	0
22	50982	37	0
22	50982	37.1	0
22	50982	37.2	0
22	50982	37.3	0
22	50982	37.4	0
22	50982	37.5	0
22	50982	37.6	0
22	50982	37.7	0
22	50982	37.8	0
22	50982	37.9	0
22	50982	38	0
22	50982	38.1	0
22	50982	38.2	0
22	50982	38.3	0
22	50982	38.4	0
22	50982	38.5	0
22	50982	38.6	0
22	50982	38.7	0
22	50982	38.8	0
22	50982	38.9	0
22	50982	39	0
22	50982	39.1	0
22	50982	39.2	0
22	50982	39.3	0
22	50982	39.4	0
22	50982	39.5	0
22	50982	39.6	0
22	50982	39.7	0
22	50982	39.8	0
22	50982	39.9	0
22	50982	40	0
22	50982	40.1	0
22	50982	40.2	0
22	50982	40.3	0
22	50982	40.4	0
22	50982	40.5	0
22	50982	40.6	0
22	50982	40.7	0
22	50982	40.8	0
22	50982	40.9	0
22	50982	41	0
22	50982	41.1	0
22	50982	41.2	0
22	50982	41.3	0
22	50982	41.4	0
22	50982	41.5	0
22	50982	41.6	0
22	50982	41.7	0
22	50982	41.8	0
22	50982	41.9	0
22	50982	42	0
22	50982	42.1	0
22	50982	42.2	0
22	50982	42.3	0
22	50982	42.4	0
22	50982	42.5	0
22	50982	42.6	0
22	50982	42.7	0
22	50982	42.8	0
22	50982	42.9	0
22	50982	43	0
22	50982	43.1	0
22	50982	43.2	0
22	50982	43.3	0
22	50982	43.4	0
22	50982	43.5	0
22	50982	43.6	0
22	50982	43.7	0
22	50982	43.8	0
22	50982	43.9	0
22	50982	44	0
22	50982	44.1	0
22	50982	44.2	0
22	50982	44.3	0
22	50982	44.4	0
22	50982	44.5	0
22	50982	44.6	0
22	50982	44.7	0
22	50982	44.8	0
22	50982	44.9	0
22	50982	45	0
22	50982	45.1	0
22	50982	45.2	0
22	50982	45.3	0
22	50982	45.4	0
22	50982	45.5	0
22	50982	45.6	0
22	50982	45.7	0
22	50982	45.8	0
22	50982	45.9	0
22	50982	46	0
22	50982	46.1	0
22	50982	46.2	0
22	50982	46.3	0
22	50982	46.4	0
22	50982	46.5	0
22	50982	46.6	0
22	50982	46.7	0
22	50982	46.8	0
22	50982	46.9	0
22	50982	47	0
22	50982	47.1	0
22	50982	47.2	0
22	50982	47.3	0
22	50982	47.4	0
22	50982	47.5	0
22	50982	47.6	0
22	50982	47.7	0
22	50982	47.8	0
22	50982	47.9	0
22	50982	48	0
22	50982	48.1	0
22	50982	48.2	0
22	50982	48.3	0
22	50982	48.4	0
22	50982	48.5	0
22	50982	48.6	0
22	50982	48.7	0
22	50982	48.8	0
22	50982	48.9	0
22	50982	49	0
22	50982	49.1	0
22	50982	49.2	0
22	50982	49.3	0
22	50982	49.4	0
22	50982	49.5	0
22	50982	49.6	0
22	50982	49.7	0
22	50982	49.8	0
22	50982	49.9	0
22	50982	50	0
22	50982	50.1	0
22	50982	50.2	0
22	50982	50.3	0
22	50982	50.4	0
22	50982	50.5	0
22	50982	50.6	0
22	50982	50.7	0
22	50982	50.8	0
22	50982	50.9	0
22	50982	51	0
22	50982	51.1	0
22	50982	51.2	0
22	50982	51.3	0
22	50982	51.4	0
22	50982	51.5	0
22	50982	51.6	0
22	50982	51.7	0
22	50982	51.8	0
22	50982	51.9	0
22	50982	52	0
22	50982	52.1	0
22	50982	52.2	0
22	50982	52.3	0
22	50982	52.4	0
22	50982	52.5	0
22	50982	52.6	0
22	50982	52.7	0
22	50982	52.8	0
22	50982	52.9	0
22	50982	53	0
22	50982	53.1	0
22	50982	53.2	0
22	50982	53.3	0
22	50982	53.4	0
22	50982	53.5	0
22	50982	53.6	0
22	50982	53.7	0
22	50982	53.8	0
22	50982	53.9	0
22	50982	54	0
22	50982	54.1	0
22	50982	54.2	0
22	50982	54.3	0
22	50982	54.4	0
22	50982	54.5	0
22	50982	54.6	0
22	50982	54.7	0
22	50982	54.8	0
22	50982	54.9	0
22	50982	55	0
22	50982	55.1	0
22	50982	55.2	0
22	50982	55.3	0
22	50982	55.4	0
22	50982	55.5	0
22	50982	55.6	0
22	50982	55.7	0
22	50982	55.8	0
22	50982	55.9	0
22	50982	56	0
22	50982	56.1	0
22	50982	56.2	0
22	50982	56.3	0
22	50982	56.4	0
22	50982	56.5	0
22	50982	56.6	0
22	50982	56.7	0
22	50982	56.8	0
22	50982	56.9	0
22	50982	57	0
22	50982	57.1	0
22	50982	57.2	0
22	50982	57.3	0
22	50982	57.4	0
22	50982	57.5	0
22	50982	57.6	0
22	50982	57.7	0
22	50982	57.8	0
22	50982	57.9	0
22	50982	58	0
22	50982	58.1	0
22	50982	58.2	0
22	50982	58.3	0
22	50982	58.4	0
22	50982	58.5	0
22	50982	58.6	0
22	50982	58.7	0
22	50982	58.8	0
22	50982	58.9	0
22	50982	59	0
22	50982	59.1	0
22	50982	59.2	0
22	50982	59.3	0
22	50982	59.4	0
22	50982	59.5	0
22	50982	59.6	0
22	50982	59.7	0
22	50982	59.8	0
22	50982	59.9	0
22	50982	60	0

